TPP
  -OEChem-06022200393D
mmff94smod_NoEstat = 110.35
 42 43  0     1  0  0  0  0  0999 V2000
    6.1762    8.9713  -43.5751 N   0  0  0  0  0  0  0  0  0  0  0  0
    6.7896    9.3097  -44.7757 C   0  0  0  0  0  0  0  0  0  0  0  0
    7.7914    8.3491  -45.3374 C   0  0  0  0  0  0  0  0  0  0  0  0
    6.5204   10.4874  -45.4467 N   0  0  0  0  0  0  0  0  0  0  0  0
    5.6014   11.3272  -44.9014 C   0  0  0  0  0  0  0  0  0  0  0  0
    5.3151   12.4726  -45.5193 N   0  0  0  0  0  0  0  0  0  0  0  0
    5.0051   10.9246  -43.7080 C   0  0  0  0  0  0  0  0  0  0  0  0
    5.2519    9.7819  -43.0153 C   0  0  0  0  0  0  0  0  0  0  0  0
    4.0470   11.7650  -43.0990 C   0  0  0  0  0  0  0  0  0  0  0  0
    2.6740   11.5670  -43.4830 N   0  3  0  0  0  0  0  0  0  0  0  0
    2.2180   10.6370  -44.3850 C   0  0  0  0  0  0  0  0  0  0  0  0
    0.6270   10.7260  -44.6440 S   0  0  0  0  0  0  0  0  0  0  0  0
    0.4880   11.9350  -43.6440 C   0  0  0  0  0  0  0  0  0  0  0  0
    1.6550   12.3030  -43.0410 C   0  0  0  0  0  0  0  0  0  0  0  0
    1.7630   13.3860  -42.0420 C   0  0  0  0  0  0  0  0  0  0  0  0
   -0.9080   12.3850  -43.5020 C   0  0  0  0  0  0  0  0  0  0  0  0
   -1.1220   13.4496  -44.5648 C   0  0  0  0  0  0  0  0  0  0  0  0
   -0.2404   14.5255  -44.3805 O   0  0  0  0  0  0  0  0  0  0  0  0
    0.0074   15.4636  -45.6534 P   0  0  1  0  0  0  0  0  0  0  0  0
   -1.2836   15.6838  -46.3992 O   0  0  0  0  0  0  0  0  0  0  0  0
    0.7055   16.7702  -45.2789 O   0  5  0  0  0  0  0  0  0  0  0  0
    0.9534   14.5722  -46.6045 O   0  0  0  0  0  0  0  0  0  0  0  0
    1.4596   15.1565  -48.0409 P   0  0  0  0  0  0  0  0  0  0  0  0
    0.2563   15.4332  -48.9430 O   0  0  0  0  0  0  0  0  0  0  0  0
    2.3365   14.1007  -48.7219 O   0  5  0  0  0  0  0  0  0  0  0  0
    2.2001   16.4680  -47.7763 O   0  5  0  0  0  0  0  0  0  0  0  0
    7.8833    7.4811  -44.6679 H   0  0  0  0  0  0  0  0  0  0  0  0
    7.4595    8.0124  -46.3306 H   0  0  0  0  0  0  0  0  0  0  0  0
    8.7676    8.8481  -45.4267 H   0  0  0  0  0  0  0  0  0  0  0  0
    5.8607   12.5470  -46.3539 H   0  0  0  0  0  0  0  0  0  0  0  0
    4.3432   12.4907  -45.7538 H   0  0  0  0  0  0  0  0  0  0  0  0
    4.7489    9.5409  -42.0905 H   0  0  0  0  0  0  0  0  0  0  0  0
    4.1139   11.6130  -42.0116 H   0  0  0  0  0  0  0  0  0  0  0  0
    4.3139   12.8043  -43.3410 H   0  0  0  0  0  0  0  0  0  0  0  0
    2.8597    9.9179  -44.8724 H   0  0  0  0  0  0  0  0  0  0  0  0
    1.9610   14.3393  -42.5539 H   0  0  0  0  0  0  0  0  0  0  0  0
    0.8208   13.4609  -41.4793 H   0  0  0  0  0  0  0  0  0  0  0  0
    2.5876   13.1641  -41.3486 H   0  0  0  0  0  0  0  0  0  0  0  0
   -1.5978   11.5431  -43.6616 H   0  0  0  0  0  0  0  0  0  0  0  0
   -1.0718   12.8084  -42.5001 H   0  0  0  0  0  0  0  0  0  0  0  0
   -0.9487   13.0079  -45.5571 H   0  0  0  0  0  0  0  0  0  0  0  0
   -2.1569   13.8174  -44.5029 H   0  0  0  0  0  0  0  0  0  0  0  0
  1  2  2  0  0  0  0
  1  8  1  0  0  0  0
  2  3  1  0  0  0  0
  2  4  1  0  0  0  0
  4  5  2  0  0  0  0
  5  6  1  0  0  0  0
  5  7  1  0  0  0  0
  7  8  2  0  0  0  0
  7  9  1  0  0  0  0
  9 10  1  0  0  0  0
 10 11  2  0  0  0  0
 10 14  1  0  0  0  0
 11 12  1  0  0  0  0
 12 13  1  0  0  0  0
 13 14  2  0  0  0  0
 13 16  1  0  0  0  0
 14 15  1  0  0  0  0
 16 17  1  0  0  0  0
 17 18  1  0  0  0  0
 18 19  1  0  0  0  0
 19 20  2  0  0  0  0
 19 21  1  0  0  0  0
 19 22  1  0  0  0  0
 22 23  1  0  0  0  0
 23 24  2  0  0  0  0
 23 25  1  0  0  0  0
 23 26  1  0  0  0  0
  3 27  1  0  0  0  0
  3 28  1  0  0  0  0
  3 29  1  0  0  0  0
  6 30  1  0  0  0  0
  6 31  1  0  0  0  0
  8 32  1  0  0  0  0
  9 33  1  0  0  0  0
  9 34  1  0  0  0  0
 11 35  1  0  0  0  0
 15 36  1  0  0  0  0
 15 37  1  0  0  0  0
 15 38  1  0  0  0  0
 16 39  1  0  0  0  0
 16 40  1  0  0  0  0
 17 41  1  0  0  0  0
 17 42  1  0  0  0  0
M  CHG  4  10   1  21  -1  25  -1  26  -1
M  END
> <mmff94smod_NoEstat>
110.35

$$$$
