REMARK  8 active torsions:
REMARK  status: ('A' for Active; 'I' for Inactive)
REMARK    1  A    between atoms: C3_5  and  N3_6 
REMARK    2  A    between atoms: C6_9  and  N4_10 
REMARK    3  A    between atoms: C8_13  and  C11_16 
REMARK    4  A    between atoms: C11_16  and  C12_17 
REMARK    5  A    between atoms: C12_17  and  O1_18 
REMARK    6  A    between atoms: O1_18  and  P1_19 
REMARK    7  A    between atoms: P1_19  and  O4_22 
REMARK    8  A    between atoms: O4_22  and  P2_23 
ROOT
ATOM      1  N4  <0> d   1       2.674  11.567 -43.483  0.00  0.00    -0.181 N 
ATOM      2  C7  <0> d   1       2.218  10.637 -44.385  0.00  0.00     0.374 A 
ATOM      3  S1  <0> d   1       0.627  10.726 -44.644  0.00  0.00    -0.080 SA
ATOM      4  C8  <0> d   1       0.488  11.935 -43.644  0.00  0.00    -0.140 A 
ATOM      5  C9  <0> d   1       1.655  12.303 -43.041  0.00  0.00     0.152 A 
ATOM      6  C10 <0> d   1       1.763  13.386 -42.042  0.00  0.00     0.181 C 
ENDROOT
BRANCH   1   7
ATOM      7  C6  <0> d   1       4.047  11.765 -43.099  0.00  0.00     0.657 C 
ATOM      8  C4  <0> d   1       5.005  10.925 -43.708  0.00  0.00    -0.143 A 
ATOM      9  C3  <0> d   1       5.601  11.327 -44.901  0.00  0.00     0.410 A 
ATOM     10  C5  <0> d   1       5.252   9.782 -43.015  0.00  0.00     0.310 A 
ATOM     11  N2  <0> d   1       6.520  10.487 -45.447  0.00  0.00    -0.620 NA
ATOM     12  C1  <0> d   1       6.790   9.310 -44.776  0.00  0.00     0.476 A 
ATOM     13  N1  <0> d   1       6.176   8.971 -43.575  0.00  0.00    -0.620 NA
ATOM     14  C2  <0> d   1       7.791   8.349 -45.337  0.00  0.00     0.143 C 
BRANCH   9  15
ATOM     15  N3  <0> d   1       5.315  12.473 -45.519  0.00  0.00    -0.900 NA
ATOM     16  H4  <0> d   1       5.861  12.547 -46.354  0.00  0.00     0.400 HD
ATOM     17  H5  <0> d   1       4.343  12.491 -45.754  0.00  0.00     0.400 HD
ENDBRANCH   9  15
ENDBRANCH   1   7
BRANCH   4  18
ATOM     18  C11 <0> d   1      -0.908  12.385 -43.502  0.00  0.00     0.180 C 
BRANCH  18  19
ATOM     19  C12 <0> d   1      -1.122  13.450 -44.565  0.00  0.00     0.280 C 
BRANCH  19  20
ATOM     20  O1  <0> d   1      -0.240  14.525 -44.380  0.00  0.00    -0.551 OA
BRANCH  20  21
ATOM     21  P1  <0> d   1       0.007  15.464 -45.653  0.00  0.00     1.442 P 
ATOM     22  O2  <0> d   1      -1.284  15.684 -46.399  0.00  0.00    -0.950 OA
ATOM     23  O3  <0> d   1       0.706  16.770 -45.279  0.00  0.00    -0.950 OA
BRANCH  21  24
ATOM     24  O4  <0> d   1       0.953  14.572 -46.605  0.00  0.00    -0.542 OA
BRANCH  24  25
ATOM     25  P2  <0> d   1       1.460  15.156 -48.041  0.00  0.00     1.371 P 
ATOM     26  O5  <0> d   1       0.256  15.433 -48.943  0.00  0.00    -1.033 OA
ATOM     27  O6  <0> d   1       2.337  14.101 -48.722  0.00  0.00    -1.033 OA
ATOM     28  O7  <0> d   1       2.200  16.468 -47.776  0.00  0.00    -1.033 OA
ENDBRANCH  24  25
ENDBRANCH  21  24
ENDBRANCH  20  21
ENDBRANCH  19  20
ENDBRANCH  18  19
ENDBRANCH   4  18
TORSDOF 8
