@<TRIPOS>MOLECULE
TPP
   42    43     0     0     0
SMALL
USER_CHARGES

mmff94smod_NoEstat = 110.35
@<TRIPOS>ATOM
      1 N1          6.1762    8.9713  -43.5751 N.ar      1 <0>        -0.6200
      2 C1          6.7896    9.3097  -44.7757 C.ar      1 <0>         0.4765
      3 C2          7.7914    8.3491  -45.3374 C.3       1 <0>         0.1435
      4 N2          6.5204   10.4874  -45.4467 N.ar      1 <0>        -0.6200
      5 C3          5.6014   11.3272  -44.9014 C.ar      1 <0>         0.4100
      6 N3          5.3151   12.4726  -45.5193 N.pl3     1 <0>        -0.9000
      7 C4          5.0051   10.9246  -43.7080 C.ar      1 <0>        -0.1435
      8 C5          5.2519    9.7819  -43.0153 C.ar      1 <0>         0.1600
      9 C6          4.0470   11.7650  -43.0990 C.3       1 <0>         0.6575
     10 N4          2.6740   11.5670  -43.4830 N.pl3     1 <0>        -0.1810
     11 C7          2.2180   10.6370  -44.3850 C.2       1 <0>         0.2240
     12 S1          0.6270   10.7260  -44.6440 S.3       1 <0>        -0.0800
     13 C8          0.4880   11.9350  -43.6440 C.2       1 <0>        -0.1400
     14 C9          1.6550   12.3030  -43.0410 C.2       1 <0>         0.1520
     15 C10         1.7630   13.3860  -42.0420 C.3       1 <0>         0.1810
     16 C11        -0.9080   12.3850  -43.5020 C.3       1 <0>         0.1800
     17 C12        -1.1220   13.4496  -44.5648 C.3       1 <0>         0.2800
     18 O1         -0.2404   14.5255  -44.3805 O.3       1 <0>        -0.5512
     19 P1          0.0074   15.4636  -45.6534 P.3       1 <0>         1.4424
     20 O2         -1.2836   15.6838  -46.3992 O.2       1 <0>        -0.9500
     21 O3          0.7055   16.7702  -45.2789 O.3       1 <0>        -0.9500
     22 O4          0.9534   14.5722  -46.6045 O.3       1 <0>        -0.5424
     23 P2          1.4596   15.1565  -48.0409 P.3       1 <0>         1.3712
     24 O5          0.2563   15.4332  -48.9430 O.2       1 <0>        -1.0333
     25 O6          2.3365   14.1007  -48.7219 O.3       1 <0>        -1.0333
     26 O7          2.2001   16.4680  -47.7763 O.3       1 <0>        -1.0333
     27 H1          7.8833    7.4811  -44.6679 H         1 <0>         0.0000
     28 H2          7.4595    8.0124  -46.3306 H         1 <0>         0.0000
     29 H3          8.7676    8.8481  -45.4267 H         1 <0>         0.0000
     30 H4          5.8607   12.5470  -46.3539 H         1 <0>         0.4000
     31 H5          4.3432   12.4907  -45.7538 H         1 <0>         0.4000
     32 H6          4.7489    9.5409  -42.0905 H         1 <0>         0.1500
     33 H7          4.1139   11.6130  -42.0116 H         1 <0>         0.0000
     34 H8          4.3139   12.8043  -43.3410 H         1 <0>         0.0000
     35 H9          2.8597    9.9179  -44.8724 H         1 <0>         0.1500
     36 H10         1.9610   14.3393  -42.5539 H         1 <0>         0.0000
     37 H11         0.8208   13.4609  -41.4793 H         1 <0>         0.0000
     38 H12         2.5876   13.1641  -41.3486 H         1 <0>         0.0000
     39 H13        -1.5978   11.5431  -43.6616 H         1 <0>         0.0000
     40 H14        -1.0718   12.8084  -42.5001 H         1 <0>         0.0000
     41 H15        -0.9487   13.0079  -45.5571 H         1 <0>         0.0000
     42 H16        -2.1569   13.8174  -44.5029 H         1 <0>         0.0000
@<TRIPOS>BOND
     1    1    2 ar
     2    1    8 ar
     3    2    3 1
     4    2    4 ar
     5    4    5 ar
     6    5    6 1
     7    5    7 ar
     8    7    8 ar
     9    7    9 1
    10    9   10 1
    11   10   11 2
    12   10   14 1
    13   11   12 1
    14   12   13 1
    15   13   14 2
    16   13   16 1
    17   14   15 1
    18   16   17 1
    19   17   18 1
    20   18   19 1
    21   19   20 2
    22   19   21 1
    23   19   22 1
    24   22   23 1
    25   23   24 2
    26   23   25 1
    27   23   26 1
    28    3   27 1
    29    3   28 1
    30    3   29 1
    31    6   30 1
    32    6   31 1
    33    8   32 1
    34    9   33 1
    35    9   34 1
    36   11   35 1
    37   15   36 1
    38   15   37 1
    39   15   38 1
    40   16   39 1
    41   16   40 1
    42   17   41 1
    43   17   42 1
