# created with PyMOL 2.5.1
@<TRIPOS>MOLECULE
2CKY_nuc
2485 2682 77 0 0
SMALL
AMBER ff14SB


@<TRIPOS>ATOM
      1 C5'         2.3110  -11.1030  -60.2230 C.3       1   G    0.0558
      2 O5'         1.0500  -11.0240  -60.8770 O.3       1   G   -0.6223
      3 C4'         2.3050  -11.6280  -58.7940 C.3       1   G    0.1065
      4 O4'         2.6070  -13.0510  -58.8620 O.3       1   G   -0.3548
      5 C3'         3.4290  -11.0740  -57.8940 C.3       1   G    0.2022
      6 O3'         3.1730   -9.8260  -57.1740 O.3       1   G   -0.5246
      7 C2'         3.7430  -12.2250  -56.9370 C.3       1   G    0.0670
      8 O2'         2.9050  -12.3160  -55.8180 O.3       1   G   -0.6139
      9 C1'         3.5590  -13.4260  -57.8570 C.3       1   G    0.0191
     10 N1          6.6550  -14.4930  -61.8140 N.pl3     1   G   -0.4787
     11 C2          5.3210  -14.1360  -61.8460 C.2       1   G    0.7657
     12 N2          4.7430  -14.0530  -63.0530 N.pl3     1   G   -0.9672
     13 N3          4.5850  -13.8810  -60.7810 N.2       1   G   -0.6323
     14 C4          5.3130  -14.0120  -59.6610 C.2       1   G    0.1222
     15 C5          6.6400  -14.3590  -59.5280 C.2       1   G    0.1744
     16 C6          7.4000  -14.6240  -60.6520 C.2       1   G    0.4770
     17 O6          8.5840  -14.9360  -60.6350 O.2       1   G   -0.5597
     18 N7          7.0640  -14.3980  -58.2130 N.2       1   G   -0.5709
     19 C8          5.9800  -14.0690  -57.5590 C.2       1   G    0.1374
     20 N9          4.8780  -13.8220  -58.3680 N.pl3     1   G    0.0492
     21 H5'         2.7377  -10.1002  -60.2051 H         1   G    0.0679
     22 H5''        2.9644  -11.7411  -60.8180 H         1   G    0.0679
     23 H4'         1.3312  -11.4661  -58.3319 H         1   G    0.1174
     24 H3'         4.3067  -10.9183  -58.5213 H         1   G    0.0615
     25 H2'         4.7825  -12.1633  -56.6149 H         1   G    0.0972
     26 H1'         3.1471  -14.2513  -57.2761 H         1   G    0.2006
     27 H1          7.1177  -14.6701  -62.6941 H         1   G    0.3424
     28 H8          5.9447  -13.9956  -56.4821 H         1   G    0.1640
     29 H21         5.2819  -14.2454  -63.8853 H         1   G    0.4364
     30 H22         3.7687  -13.7981  -63.1299 H         1   G    0.4364
     31 HO2'        3.0384  -11.5502  -55.2546 H         1   G    0.4186
     32 HO5'        0.9503  -10.2811  -61.4769 H         1   G    0.4295
     33 P           4.4210   -8.8770  -56.7410 P.3       2   G    1.1662
     34 C5'         6.5800   -9.6500  -55.4610 C.3       2   G    0.0558
     35 O5'         5.5680   -9.9330  -56.4030 O.3       2   G   -0.4989
     36 C4'         7.8930  -10.1390  -56.0320 C.3       2   G    0.1065
     37 O4'         7.6750  -11.2100  -56.9800 O.3       2   G   -0.3548
     38 C3'         8.6340   -9.1440  -56.8990 C.3       2   G    0.2022
     39 O3'         9.2080   -8.0590  -56.1230 O.3       2   G   -0.5246
     40 C2'         9.6390  -10.0960  -57.5390 C.3       2   G    0.0670
     41 O2'        10.5790  -10.6120  -56.6250 O.3       2   G   -0.6139
     42 C1'         8.7250  -11.2230  -57.9330 C.3       2   G    0.0191
     43 N1          9.5540  -11.5640  -62.9760 N.pl3     2   G   -0.4787
     44 C2         10.4660  -11.7040  -61.9590 C.2       2   G    0.7657
     45 N2         11.7200  -11.9530  -62.3710 N.pl3     2   G   -0.9672
     46 N3         10.1740  -11.5930  -60.6650 N.2       2   G   -0.6323
     47 C4          8.8490  -11.3410  -60.4730 C.2       2   G    0.1222
     48 C5          7.8690  -11.2000  -61.4270 C.2       2   G    0.1744
     49 C6          8.2000  -11.3120  -62.7770 C.2       2   G    0.4770
     50 O6          7.4110  -11.2010  -63.7140 O.2       2   G   -0.5597
     51 N7          6.6260  -10.9530  -60.8710 N.2       2   G   -0.5709
     52 C8          6.8560  -10.9230  -59.5900 C.2       2   G    0.1374
     53 N9          8.1760  -11.1450  -59.2780 N.pl3     2   G    0.0492
     54 OP1         4.1950   -8.2130  -55.4240 O.co2     2   G   -0.7760
     55 OP2         4.7870   -8.1210  -57.9640 O.co2     2   G   -0.7760
     56 H5'         6.3686  -10.1650  -54.5239 H         2   G    0.0679
     57 H5''        6.6314   -8.5752  -55.2872 H         2   G    0.0679
     58 H4'         8.5416  -10.4836  -55.2266 H         2   G    0.1174
     59 H3'         7.9647   -8.7432  -57.6602 H         2   G    0.0615
     60 H2'        10.1237   -9.6476  -58.4063 H         2   G    0.0972
     61 H1'         9.2702  -12.1617  -57.8351 H         2   G    0.2006
     62 H1          9.8861  -11.6491  -63.9260 H         2   G    0.3424
     63 H8          6.0901  -10.7426  -58.8502 H         2   G    0.1640
     64 H21        11.9219  -12.0278  -63.3578 H         2   G    0.4364
     65 H22        12.4610  -12.0654  -61.6940 H         2   G    0.4364
     66 HO2'       11.1791   -9.9135  -56.3538 H         2   G    0.4186
     67 P           9.5130   -6.6920  -56.9200 P.3       3   G    1.1662
     68 C5'        11.9750   -7.5870  -57.5220 C.3       3   G    0.0558
     69 O5'        10.6460   -7.2160  -57.9480 O.3       3   G   -0.4989
     70 C4'        12.8760   -7.7430  -58.7300 C.3       3   G    0.1065
     71 O4'        12.2980   -8.7650  -59.5700 O.3       3   G   -0.3548
     72 C3'        12.9540   -6.5590  -59.6800 C.3       3   G    0.2022
     73 O3'        13.8950   -5.5760  -59.2850 O.3       3   G   -0.5246
     74 C2'        13.3120   -7.2170  -61.0100 C.3       3   G    0.0670
     75 O2'        14.6590   -7.6320  -61.1430 O.3       3   G   -0.6139
     76 C1'        12.4180   -8.4410  -60.9520 C.3       3   G    0.0191
     77 N1          9.3150   -8.2770  -65.0270 N.pl3     3   G   -0.4787
     78 C2         10.6770   -8.4460  -64.9990 C.2       3   G    0.7657
     79 N2         11.2660   -8.5900  -66.1870 N.pl3     3   G   -0.9672
     80 N3         11.4120   -8.4610  -63.8900 N.2       3   G   -0.6323
     81 C4         10.6540   -8.3120  -62.7850 C.2       3   G    0.1222
     82 C5          9.2970   -8.1430  -62.7160 C.2       3   G    0.1744
     83 C6          8.5360   -8.1180  -63.8820 C.2       3   G    0.4770
     84 O6          7.3120   -7.9660  -63.9150 O.2       3   G   -0.5597
     85 N7          8.8510   -7.9980  -61.4150 N.2       3   G   -0.5709
     86 C8          9.9360   -8.0900  -60.7080 C.2       3   G    0.1374
     87 N9         11.0700   -8.2760  -61.4750 N.pl3     3   G    0.0492
     88 OP1        10.1170   -5.6920  -55.9980 O.co2     3   G   -0.7760
     89 OP2         8.3030   -6.3480  -57.7190 O.co2     3   G   -0.7760
     90 H5'        12.3756   -6.8111  -56.8697 H         3   G    0.0679
     91 H5''       11.9311   -8.5307  -56.9783 H         3   G    0.0679
     92 H4'        13.8771   -8.0380  -58.4155 H         3   G    0.1174
     93 H3'        11.9689   -6.0996  -59.7614 H         3   G    0.0615
     94 H2'        13.0263   -6.5746  -61.8430 H         3   G    0.0972
     95 H1'        12.9055   -9.2655  -61.4721 H         3   G    0.2006
     96 H1          8.8527   -8.2673  -65.9250 H         3   G    0.3424
     97 H8          9.9506   -8.0275  -59.6299 H         3   G    0.1640
     98 H21        10.7112   -8.5747  -67.0309 H         3   G    0.4364
     99 H22        12.2668   -8.7143  -66.2427 H         3   G    0.4364
    100 HO2'       15.0700   -7.1583  -61.8699 H         3   G    0.4186
    101 P          13.5630   -4.0610  -59.7140 P.3       4   A    1.1662
    102 C5'        15.3430   -4.5650  -61.6180 C.3       4   A    0.0558
    103 O5'        14.0370   -4.1710  -61.2440 O.3       4   A   -0.4989
    104 C4'        15.4310   -4.6390  -63.1270 C.3       4   A    0.1065
    105 O4'        14.5450   -5.6750  -63.5960 O.3       4   A   -0.3548
    106 C3'        14.9410   -3.4180  -63.8970 C.3       4   A    0.2022
    107 O3'        15.9180   -2.3620  -63.9840 O.3       4   A   -0.5246
    108 C2'        14.6280   -4.0440  -65.2460 C.3       4   A    0.0670
    109 O2'        15.7680   -4.4330  -65.9800 O.3       4   A   -0.6139
    110 C1'        13.9010   -5.2900  -64.8020 C.3       4   A    0.0394
    111 N1          9.1860   -5.4650  -66.8670 N.2       4   A   -0.7615
    112 C2         10.4020   -5.6250  -67.4090 C.2       4   A    0.5875
    113 N3         11.5950   -5.5610  -66.8140 N.2       4   A   -0.6997
    114 C4         11.4580   -5.2920  -65.5030 C.2       4   A    0.3053
    115 C5         10.2700   -5.1080  -64.8120 C.2       4   A    0.0515
    116 C6          9.0770   -5.2040  -65.5510 C.2       4   A    0.7009
    117 N6          7.8670   -5.0490  -65.0060 N.pl3     4   A   -0.9019
    118 N7         10.5160   -4.8540  -63.4710 N.2       4   A   -0.6073
    119 C8         11.8250   -4.8880  -63.3740 C.2       4   A    0.2006
    120 N9         12.4620   -5.1480  -64.5650 N.pl3     4   A   -0.0251
    121 OP1        14.3750   -3.1100  -58.8990 O.co2     4   A   -0.7760
    122 OP2        12.1000   -3.8130  -59.7230 O.co2     4   A   -0.7760
    123 H5'        16.0633   -3.8360  -61.2468 H         4   A    0.0679
    124 H5''       15.5637   -5.5438  -61.1922 H         4   A    0.0679
    125 H4'        16.4541   -4.8713  -63.4226 H         4   A    0.1174
    126 H3'        14.0252   -3.0382  -63.4441 H         4   A    0.0615
    127 H2'        13.9790   -3.3992  -65.8385 H         4   A    0.0972
    128 H1'        14.0575   -6.0704  -65.5467 H         4   A    0.2007
    129 H2         10.4182   -5.8335  -68.4686 H         4   A    0.0473
    130 H8         12.3524   -4.7268  -62.4454 H         4   A    0.1553
    131 H61         7.1298   -5.4449  -65.5716 H         4   A    0.4115
    132 H62         7.7067   -4.5856  -64.1230 H         4   A    0.4115
    133 HO2'       16.2437   -3.6516  -66.2711 H         4   A    0.4186
    134 P          15.4210   -0.8330  -63.8940 P.3       5   C    1.1662
    135 C5'        15.5580   -0.6830  -66.4510 C.3       5   C    0.0558
    136 O5'        14.7270   -0.7520  -65.3330 O.3       5   C   -0.4989
    137 C4'        14.7470   -0.8380  -67.7160 C.3       5   C    0.1065
    138 O4'        13.9100   -2.0090  -67.6360 O.3       5   C   -0.3548
    139 C3'        13.7230    0.2420  -68.0200 C.3       5   C    0.2022
    140 O3'        14.3700    1.3960  -68.4590 O.3       5   C   -0.5246
    141 C2'        12.8980   -0.4860  -69.0830 C.3       5   C    0.0670
    142 O2'        13.5820   -0.7430  -70.2940 O.3       5   C   -0.6139
    143 C1'        12.6930   -1.7800  -68.3260 C.3       5   C    0.0066
    144 N1         11.5820   -1.7720  -67.3240 N.pl3     5   C   -0.0484
    145 C2         10.2850   -2.0050  -67.7850 C.2       5   C    0.7538
    146 O2         10.0850   -2.1890  -69.0000 O.2       5   C   -0.6252
    147 N3          9.2810   -2.0200  -66.8830 N.2       5   C   -0.7584
    148 C4          9.5320   -1.8250  -65.5910 C.2       5   C    0.8185
    149 N4          8.4950   -1.8580  -64.7440 N.pl3     5   C   -0.9530
    150 C5         10.8580   -1.5950  -65.1060 C.2       5   C   -0.5215
    151 C6         11.8440   -1.5800  -65.9980 C.2       5   C    0.0053
    152 OP1        16.6050    0.0710  -63.8740 O.co2     5   C   -0.7760
    153 OP2        14.4510   -0.6640  -62.7690 O.co2     5   C   -0.7760
    154 H5'        16.2985   -1.4811  -66.3985 H         5   C    0.0679
    155 H5''       16.0665    0.2810  -66.4640 H         5   C    0.0679
    156 H4'        15.4235   -0.9389  -68.5647 H         5   C    0.1174
    157 H3'        13.1151    0.4535  -67.1403 H         5   C    0.0615
    158 H2'        11.9502    0.0209  -69.2639 H         5   C    0.0972
    159 H1'        12.5274   -2.5887  -69.0377 H         5   C    0.2029
    160 H5         11.0510   -1.4394  -64.0548 H         5   C    0.1928
    161 H6         12.8599   -1.4147  -65.6710 H         5   C    0.1958
    162 H41         7.5622   -2.0237  -65.0940 H         5   C    0.4234
    163 H42         8.6458   -1.7172  -63.7553 H         5   C    0.4234
    164 HO2'       13.7098    0.0804  -70.7708 H         5   C    0.4186
    165 P          13.6970    2.7950  -68.1690 P.3       6   C    1.1662
    166 C5'        12.2730    2.5770  -70.3260 C.3       6   C    0.0558
    167 O5'        12.3000    2.5530  -68.9080 O.3       6   C   -0.4989
    168 C4'        10.8720    2.8280  -70.8510 C.3       6   C    0.1065
    169 O4'        10.1160    1.6140  -70.6350 O.3       6   C   -0.3548
    170 C3'        10.0120    3.9210  -70.2030 C.3       6   C    0.2022
    171 O3'        10.2720    5.2440  -70.6840 O.3       6   C   -0.5246
    172 C2'         8.6400    3.4440  -70.6560 C.3       6   C    0.0670
    173 O2'         8.3750    3.8330  -71.9940 O.3       6   C   -0.6139
    174 C1'         8.7620    1.9280  -70.4310 C.3       6   C    0.0066
    175 N1          8.4070    1.6040  -69.0390 N.pl3     6   C   -0.0484
    176 C2          7.1030    1.2020  -68.7080 C.2       6   C    0.7538
    177 O2          6.2580    1.0760  -69.6110 O.2       6   C   -0.6252
    178 N3          6.8210    0.9450  -67.3900 N.2       6   C   -0.7584
    179 C4          7.7680    1.0910  -66.4390 C.2       6   C    0.8185
    180 N4          7.5000    0.8550  -65.1520 N.pl3     6   C   -0.9530
    181 C5          9.0840    1.5060  -66.7830 C.2       6   C   -0.5215
    182 C6          9.3600    1.7440  -68.0720 C.2       6   C    0.0053
    183 OP1        14.5430    3.7260  -68.9300 O.co2     6   C   -0.7760
    184 OP2        13.5310    3.1010  -66.7290 O.co2     6   C   -0.7760
    185 H5'        12.9311    3.3709  -70.6793 H         6   C    0.0679
    186 H5''       12.6310    1.6203  -70.7064 H         6   C    0.0679
    187 H4'        10.9293    3.0180  -71.9228 H         6   C    0.1174
    188 H3'        10.0941    3.8827  -69.1168 H         6   C    0.0615
    189 H2'         7.8738    3.8521  -69.9968 H         6   C    0.0972
    190 H1'         8.1285    1.3810  -71.1292 H         6   C    0.2029
    191 H5          9.8424    1.6263  -66.0235 H         6   C    0.1928
    192 H6         10.3564    2.0528  -68.3517 H         6   C    0.1958
    193 H41         8.2227    0.9714  -64.4561 H         6   C    0.4234
    194 H42         6.5747    0.5601  -64.8747 H         6   C    0.4234
    195 HO2'        7.4393    4.0241  -72.0921 H         6   C    0.4186
    196 P           9.8070    6.6000  -69.9440 P.3       7   A    1.1662
    197 C5'         7.2950    6.5850  -70.7690 C.3       7   A    0.0558
    198 O5'         8.2270    6.5080  -69.6740 O.3       7   A   -0.4989
    199 C4'         5.8550    6.3150  -70.3460 C.3       7   A    0.1065
    200 O4'         5.7360    4.9330  -69.9020 O.3       7   A   -0.3548
    201 C3'         5.3040    7.1380  -69.1730 C.3       7   A    0.2022
    202 O3'         4.8090    8.4520  -69.5310 O.3       7   A   -0.5246
    203 C2'         4.1740    6.2050  -68.7260 C.3       7   A    0.0670
    204 O2'         3.0380    6.1690  -69.5700 O.3       7   A   -0.6139
    205 C1'         4.8990    4.8610  -68.7500 C.3       7   A    0.0394
    206 N1          4.0370    3.7990  -63.8800 N.2       7   A   -0.7615
    207 C2          3.2310    3.9940  -64.9360 C.2       7   A    0.5875
    208 N3          3.5820    4.2630  -66.1890 N.2       7   A   -0.6997
    209 C4          4.9190    4.3480  -66.3030 C.2       7   A    0.3053
    210 C5          5.8780    4.1780  -65.3170 C.2       7   A    0.0515
    211 C6          5.3830    3.8740  -64.0210 C.2       7   A    0.7009
    212 N6          6.1270    3.6690  -62.9220 N.pl3     7   A   -0.9019
    213 N7          7.1470    4.3370  -65.8500 N.2       7   A   -0.6073
    214 C8          6.9210    4.5930  -67.1220 C.2       7   A    0.2006
    215 N9          5.5890    4.6060  -67.4670 N.pl3     7   A   -0.0251
    216 OP1        10.0200    7.5580  -71.0420 O.co2     7   A   -0.7760
    217 OP2        10.4790    6.8340  -68.6350 O.co2     7   A   -0.7760
    218 H5'         7.3485    7.5844  -71.2008 H         7   A    0.0679
    219 H5''        7.5819    5.8572  -71.5280 H         7   A    0.0679
    220 H4'         5.2054    6.4606  -71.2091 H         7   A    0.1174
    221 H3'         6.0550    7.2211  -68.3874 H         7   A    0.0615
    222 H2'         3.8728    6.4471  -67.7068 H         7   A    0.0972
    223 H1'         4.1617    4.0739  -68.9077 H         7   A    0.2007
    224 H2          2.1705    3.9238  -64.7440 H         7   A    0.0473
    225 H8          7.7129    4.7769  -67.8330 H         7   A    0.1553
    226 H61         6.1528    2.9438  -62.2195 H         7   A    0.4115
    227 H62         6.8082    4.3977  -62.7637 H         7   A    0.4115
    228 HO2'        2.5930    7.0193  -69.5448 H         7   A    0.4186
    229 P           5.1450    9.8570  -68.7860 P.3       8   G    1.1662
    230 C5'         2.8260   10.0230  -67.5910 C.3       8   G    0.0558
    231 O5'         4.2340    9.9240  -67.4480 O.3       8   G   -0.4989
    232 C4'         2.0760    9.2330  -66.5450 C.3       8   G    0.1065
    233 O4'         2.6440    7.9090  -66.3240 O.3       8   G   -0.3548
    234 C3'         2.1110    9.8150  -65.1570 C.3       8   G    0.2022
    235 O3'         1.2890   10.9270  -65.0600 O.3       8   G   -0.5246
    236 C2'         1.5210    8.6540  -64.3780 C.3       8   G    0.0670
    237 O2'         0.1310    8.4960  -64.5630 O.3       8   G   -0.6139
    238 C1'         2.2990    7.5030  -65.0090 C.3       8   G    0.0191
    239 N1          4.3080    5.9420  -60.6040 N.pl3     8   G   -0.4787
    240 C2          2.9830    6.0080  -60.9720 C.2       8   G    0.7657
    241 N2          2.1040    5.6210  -60.0430 N.pl3     8   G   -0.9672
    242 N3          2.5500    6.4410  -62.1510 N.2       8   G   -0.6323
    243 C4          3.5830    6.7940  -62.9530 C.2       8   G    0.1222
    244 C5          4.9230    6.7620  -62.6760 C.2       8   G    0.1744
    245 C6          5.3570    6.3040  -61.4410 C.2       8   G    0.4770
    246 O6          6.5280    6.2280  -61.0800 O.2       8   G   -0.5597
    247 N7          5.6840    7.1890  -63.7400 N.2       8   G   -0.5709
    248 C8          4.8010    7.4770  -64.6570 C.2       8   G    0.1374
    249 N9          3.5070    7.2570  -64.2480 N.pl3     8   G    0.0492
    250 OP1         4.6990   10.8460  -69.8110 O.co2     8   G   -0.7760
    251 OP2         6.5370    9.8760  -68.2640 O.co2     8   G   -0.7760
    252 H5'         2.5401   11.0715  -67.5071 H         8   G    0.0679
    253 H5''        2.5446    9.6579  -68.5787 H         8   G    0.0679
    254 H4'         1.0376    9.1257  -66.8585 H         8   G    0.1174
    255 H3'         3.1295   10.0377  -64.8389 H         8   G    0.0615
    256 H2'         1.7593    8.7426  -63.3181 H         8   G    0.0972
    257 H1'         1.6834    6.6040  -65.0409 H         8   G    0.2006
    258 H1          4.5299    5.6126  -59.6753 H         8   G    0.3424
    259 H8          5.0603    7.8500  -65.6368 H         8   G    0.1640
    260 H21         2.4295    5.2988  -59.1428 H         8   G    0.4364
    261 H22         1.1140    5.6506  -60.2410 H         8   G    0.4364
    262 HO2'       -0.2133    7.8898  -63.9030 H         8   G    0.4186
    263 P           1.6440   12.0510  -63.9820 P.3       9   G    1.1662
    264 C5'        -0.3920   11.0990  -62.5470 C.3       9   G    0.0558
    265 O5'         0.8950   11.6890  -62.6350 O.3       9   G   -0.4989
    266 C4'        -0.5230   10.5150  -61.1470 C.3       9   G    0.1065
    267 O4'         0.2210    9.2750  -61.0110 O.3       9   G   -0.3548
    268 C3'         0.0990   11.3710  -60.0650 C.3       9   G    0.2022
    269 O3'        -0.7620   12.4190  -59.8020 O.3       9   G   -0.5246
    270 C2'         0.2260   10.3710  -58.9310 C.3       9   G    0.0670
    271 O2'        -0.9930    9.9790  -58.3400 O.3       9   G   -0.6139
    272 C1'         0.8070    9.2340  -59.7290 C.3       9   G    0.0191
    273 N1          5.0780    8.4960  -57.2050 N.pl3     9   G   -0.4787
    274 C2          3.7660    8.3590  -56.7970 C.2       9   G    0.7657
    275 N2          3.5430    7.9690  -55.5400 N.pl3     9   G   -0.9672
    276 N3          2.7220    8.5960  -57.5640 N.2       9   G   -0.6323
    277 C4          3.1020    8.9930  -58.8100 C.2       9   G    0.1222
    278 C5          4.3640    9.1610  -59.3190 C.2       9   G    0.1744
    279 C6          5.4700    8.9070  -58.4790 C.2       9   G    0.4770
    280 O6          6.6670    9.0180  -58.7600 O.2       9   G   -0.5597
    281 N7          4.3020    9.5770  -60.6380 N.2       9   G   -0.5709
    282 C8          3.0320    9.6540  -60.9010 C.2       9   G    0.1374
    283 N9          2.2520    9.3110  -59.8350 N.pl3     9   G    0.0492
    284 OP1         1.1270   13.3450  -64.5030 O.co2     9   G   -0.7760
    285 OP2         3.0730   11.8940  -63.6470 O.co2     9   G   -0.7760
    286 H5'        -1.1610   11.8540  -62.7103 H         9   G    0.0679
    287 H5''       -0.4876   10.3065  -63.2892 H         9   G    0.0679
    288 H4'        -1.5743   10.3400  -60.9185 H         9   G    0.1174
    289 H3'         1.0780   11.7383  -60.3727 H         9   G    0.0615
    290 H2'         0.9316   10.7211  -58.1775 H         9   G    0.0972
    291 H1'         0.5385    8.2931  -59.2487 H         9   G    0.2006
    292 H1          5.8035    8.2841  -56.5351 H         9   G    0.3424
    293 H8          2.6365    9.9566  -61.8593 H         9   G    0.1640
    294 H21         4.3210    7.7819  -54.9237 H         9   G    0.4364
    295 H22         2.5963    7.8610  -55.2052 H         9   G    0.4364
    296 HO2'       -0.8705    9.1492  -57.8731 H         9   G    0.4186
    297 P          -0.3400   13.5780  -58.8170 P.3      10   G    1.1662
    298 C5'        -0.7100   12.6230  -56.4410 C.3      10   G    0.0558
    299 O5'         0.1910   12.9080  -57.4860 O.3      10   G   -0.4989
    300 C4'         0.1000   12.1920  -55.2460 C.3      10   G    0.1065
    301 O4'         1.2480   11.4200  -55.6390 O.3      10   G   -0.3548
    302 C3'         0.7870   13.3440  -54.6010 C.3      10   G    0.2022
    303 O3'        -0.1950   14.1470  -53.9380 O.3      10   G   -0.5246
    304 C2'         1.8290   12.6290  -53.7500 C.3      10   G    0.0670
    305 O2'         1.3070   12.1150  -52.5450 O.3      10   G   -0.6139
    306 C1'         2.2210   11.4520  -54.6190 C.3      10   G    0.0191
    307 N1          7.2610   10.3330  -54.6770 N.pl3    10   G   -0.4787
    308 C2          6.3660   10.1020  -53.6550 C.2      10   G    0.7657
    309 N2          6.8900    9.5260  -52.5570 N.pl3    10   G   -0.9672
    310 N3          5.0680   10.4370  -53.7200 N.2      10   G   -0.6323
    311 C4          4.7290   11.0080  -54.9040 C.2      10   G    0.1222
    312 C5          5.5570   11.2520  -55.9700 C.2      10   G    0.1744
    313 C6          6.9180   10.9000  -55.9100 C.2      10   G    0.4770
    314 O6          7.7670   11.0560  -56.8040 O.2      10   G   -0.5597
    315 N7          4.8760   11.8190  -57.0240 N.2      10   G   -0.5709
    316 C8          3.6600   11.9260  -56.5890 C.2      10   G    0.1374
    317 N9          3.4980   11.4700  -55.3070 N.pl3    10   G    0.0492
    318 OP1        -1.6410   14.2420  -58.5700 O.co2    10   G   -0.7760
    319 OP2         0.8600   14.2400  -59.3350 O.co2    10   G   -0.7760
    320 H5'        -1.2886   13.5137  -56.1960 H        10   G    0.0679
    321 H5''       -1.3810   11.8183  -56.7416 H        10   G    0.0679
    322 H4'        -0.5144   11.6476  -54.5289 H        10   G    0.1174
    323 H3'         1.2885   13.9403  -55.3633 H        10   G    0.0615
    324 H2'         2.6860   13.2749  -53.5592 H        10   G    0.0972
    325 H1'         2.1481   10.5373  -54.0308 H        10   G    0.2006
    326 H1          8.2263   10.0768  -54.5268 H        10   G    0.3424
    327 H8          2.8531   12.3346  -57.1792 H        10   G    0.1640
    328 H21         7.8717    9.2900  -52.5302 H        10   G    0.4364
    329 H22         6.3015    9.3298  -51.7600 H        10   G    0.4364
    330 HO2'        1.5859   12.6695  -51.8126 H        10   G    0.4186
    331 P           0.2950   15.6100  -53.5350 P.3      11   G    1.1662
    332 C5'         0.4540   15.0930  -51.0280 C.3      11   G    0.0558
    333 O5'         1.1540   15.3160  -52.2250 O.3      11   G   -0.4989
    334 C4'         1.4300   14.6660  -49.9670 C.3      11   G    0.1065
    335 O4'         2.2620   13.6090  -50.4810 O.3      11   G   -0.3548
    336 C3'         2.4210   15.7310  -49.5240 C.3      11   G    0.2022
    337 O3'         1.7980   16.5800  -48.5670 O.3      11   G   -0.5246
    338 C2'         3.4960   14.8400  -48.9260 C.3      11   G    0.0670
    339 O2'         3.0920   14.3070  -47.6820 O.3      11   G   -0.6139
    340 C1'         3.5680   13.7320  -49.9640 C.3      11   G    0.0191
    341 N1          8.1110   12.7480  -52.1020 N.pl3    11   G   -0.4787
    342 C2          7.6480   12.3680  -50.8730 C.2      11   G    0.7657
    343 N2          8.5090   11.6420  -50.1480 N.pl3    11   G   -0.9672
    344 N3          6.4390   12.6840  -50.4040 N.2      11   G   -0.6323
    345 C4          5.7080   13.4220  -51.2850 C.2      11   G    0.1222
    346 C5          6.0820   13.8360  -52.5310 C.2      11   G    0.1744
    347 C6          7.3690   13.4960  -52.9970 C.2      11   G    0.4770
    348 O6          7.8830   13.7680  -54.0760 O.2      11   G   -0.5597
    349 N7          5.0720   14.5590  -53.1370 N.2      11   G   -0.5709
    350 C8          4.1140   14.5870  -52.2680 C.2      11   G    0.1374
    351 N9          4.4340   13.9190  -51.1200 N.pl3    11   G    0.0492
    352 OP1        -0.8600   16.4310  -53.1000 O.co2    11   G   -0.7760
    353 OP2         1.1950   16.0530  -54.6190 O.co2    11   G   -0.7760
    354 H5'        -0.2887   14.3095  -51.1788 H        11   G    0.0679
    355 H5''       -0.0428   16.0126  -50.7186 H        11   G    0.0679
    356 H4'         0.8810   14.3018  -49.0986 H        11   G    0.1174
    357 H3'         2.8012   16.2992  -50.3729 H        11   G    0.0615
    358 H2'         4.4464   15.3670  -48.8419 H        11   G    0.0972
    359 H1'         3.8396   12.8006  -49.4671 H        11   G    0.2006
    360 H1          9.0436   12.4677  -52.3699 H        11   G    0.3424
    361 H8          3.1683   15.0824  -52.4315 H        11   G    0.1640
    362 H21         9.4193   11.4158  -50.5226 H        11   G    0.4364
    363 H22         8.2479   11.3207  -49.2267 H        11   G    0.4364
    364 HO2'        3.0483   15.0110  -47.0307 H        11   G    0.4186
    365 P           2.0840   18.1370  -48.4540 P.3      12   U    1.1662
    366 C5'         3.9610   18.0110  -46.7540 C.3      12   U    0.0558
    367 O5'         3.6270   18.1500  -48.0920 O.3      12   U   -0.4989
    368 C4'         5.4510   17.8930  -46.6640 C.3      12   U    0.1065
    369 O4'         5.8860   16.9860  -47.6670 O.3      12   U   -0.3548
    370 C3'         6.2180   19.1550  -46.9800 C.3      12   U    0.2022
    371 O3'         6.2970   19.8870  -45.7660 O.3      12   U   -0.5246
    372 C2'         7.5770   18.6370  -47.4280 C.3      12   U    0.0670
    373 O2'         8.4870   18.4420  -46.3480 O.3      12   U   -0.6139
    374 C1'         7.2200   17.2900  -47.9960 C.3      12   U    0.0674
    375 N1          7.2930   17.1790  -49.4420 N.pl3    12   U    0.0418
    376 C2          8.3840   16.5460  -49.9830 C.2      12   U    0.4687
    377 O2          9.2930   16.1170  -49.3070 O.2      12   U   -0.5477
    378 N3          8.3770   16.4330  -51.3520 N.pl3    12   U   -0.3549
    379 C4          7.3900   16.8860  -52.2080 C.2      12   U    0.5952
    380 O4          7.5300   16.7130  -53.4150 O.2      12   U   -0.5761
    381 C5          6.2620   17.5300  -51.5660 C.2      12   U   -0.3635
    382 C6          6.2480   17.6430  -50.2270 C.2      12   U   -0.1126
    383 OP1         1.4010   18.6010  -47.2330 O.co2    12   U   -0.7760
    384 OP2         1.8260   18.7690  -49.7630 O.co2    12   U   -0.7760
    385 H5'         3.6239   18.8840  -46.1952 H        12   U    0.0679
    386 H5''        3.4952   17.1124  -46.3495 H        12   U    0.0679
    387 H4'         5.7354   17.5222  -45.6793 H        12   U    0.1174
    388 H3'         5.7312   19.7333  -47.7653 H        12   U    0.0615
    389 H2'         8.0094   19.2823  -48.1927 H        12   U    0.0972
    390 H1'         7.8718   16.5374  -47.5523 H        12   U    0.1824
    391 H3          9.1709   15.9738  -51.7750 H        12   U    0.3154
    392 H5          5.4430   17.9143  -52.1559 H        12   U    0.1811
    393 H6          5.3989   18.1083  -49.7486 H        12   U    0.2188
    394 HO2'        9.3712   18.3029  -46.6951 H        12   U    0.4186
    395 P           5.8310   21.4010  -45.6700 P.3      13   G    1.1662
    396 C5'         3.9300   20.9220  -44.1700 C.3      13   G    0.0558
    397 O5'         5.2330   21.4580  -44.2060 O.3      13   G   -0.4989
    398 C4'         3.7360   20.1090  -42.9310 C.3      13   G    0.1065
    399 O4'         4.4640   18.8790  -43.0070 O.3      13   G   -0.3548
    400 C3'         4.3110   20.7680  -41.6990 C.3      13   G    0.2022
    401 O3'         3.5130   21.8730  -41.3190 O.3      13   G   -0.5246
    402 C2'         4.1860   19.5700  -40.7910 C.3      13   G    0.0670
    403 O2'         2.8080   19.3580  -40.5180 O.3      13   G   -0.6139
    404 C1'         4.8020   18.5010  -41.6940 C.3      13   G    0.0191
    405 N1          8.8190   16.7830  -39.0980 N.pl3    13   G   -0.4787
    406 C2          7.4910   16.7890  -38.7570 C.2      13   G    0.7657
    407 N2          7.2150   16.2740  -37.5530 N.pl3    13   G   -0.9672
    408 N3          6.5130   17.2730  -39.5110 N.2      13   G   -0.6323
    409 C4          6.9930   17.7530  -40.6830 C.2      13   G    0.1222
    410 C5          8.2920   17.7890  -41.1220 C.2      13   G    0.1744
    411 C6          9.3040   17.2610  -40.3150 C.2      13   G    0.4770
    412 O6         10.5150   17.2160  -40.5750 O.2      13   G   -0.5597
    413 N7          8.3960   18.3580  -42.3630 N.2      13   G   -0.5709
    414 C8          7.1580   18.6450  -42.6600 C.2      13   G    0.1374
    415 N9          6.2490   18.3250  -41.6770 N.pl3    13   G    0.0492
    416 OP1         4.7080   21.6440  -46.6280 O.co2    13   G   -0.7760
    417 OP2         7.0890   22.1730  -45.7100 O.co2    13   G   -0.7760
    418 H5'         3.2060   21.7367  -44.1820 H        13   G    0.0679
    419 H5''        3.7758   20.2895  -45.0443 H        13   G    0.0679
    420 H4'         2.6756   19.9048  -42.7827 H        13   G    0.1174
    421 H3'         5.3523   21.0551  -41.8452 H        13   G    0.0615
    422 H2'         4.7609   19.7002  -39.8741 H        13   G    0.0972
    423 H1'         4.3307   17.5432  -41.4736 H        13   G    0.2006
    424 H1          9.4817   16.4124  -38.4319 H        13   G    0.3424
    425 H8          6.8707   19.0958  -43.5984 H        13   G    0.1640
    426 H21         7.9605   15.9121  -36.9756 H        13   G    0.4364
    427 H22         6.2612   16.2472  -37.2218 H        13   G    0.4364
    428 HO2'        2.7031   19.0596  -39.6116 H        13   G    0.4186
    429 P           4.0660   22.9570  -40.2840 P.3      14   C    1.1662
    430 C5'         3.7320   22.0170  -37.8970 C.3      14   C    0.0558
    431 O5'         4.5740   22.1690  -38.9880 O.3      14   C   -0.4989
    432 C4'         4.4790   21.2810  -36.8340 C.3      14   C    0.1065
    433 O4'         5.2320   20.2120  -37.4310 O.3      14   C   -0.3548
    434 C3'         5.5650   22.0690  -36.1500 C.3      14   C    0.2022
    435 O3'         4.9590   23.0010  -35.2740 O.3      14   C   -0.5246
    436 C2'         6.3090   20.9150  -35.4950 C.3      14   C    0.0670
    437 O2'         5.5860   20.2430  -34.4920 O.3      14   C   -0.6139
    438 C1'         6.3910   19.9580  -36.6550 C.3      14   C    0.0066
    439 N1          7.5630   20.0960  -37.4970 N.pl3    14   C   -0.0484
    440 C2          8.7930   19.6870  -37.0250 C.2      14   C    0.7538
    441 O2          8.8640   19.2530  -35.8860 O.2      14   C   -0.6252
    442 N3          9.8820   19.7890  -37.8120 N.2      14   C   -0.7584
    443 C4          9.7450   20.2860  -39.0350 C.2      14   C    0.8185
    444 N4         10.8190   20.3980  -39.8220 N.pl3    14   C   -0.9530
    445 C5          8.4930   20.7150  -39.5380 C.2      14   C   -0.5215
    446 C6          7.4360   20.5950  -38.7470 C.2      14   C    0.0053
    447 OP1         2.8380   23.7530  -39.9720 O.co2    14   C   -0.7760
    448 OP2         5.3160   23.5550  -40.8270 O.co2    14   C   -0.7760
    449 H5'         3.4288   22.9957  -37.5252 H        14   C    0.0679
    450 H5''        2.8509   21.4459  -38.1895 H        14   C    0.0679
    451 H4'         3.7837   20.8823  -36.0953 H        14   C    0.1174
    452 H3'         6.1970   22.5751  -36.8798 H        14   C    0.0615
    453 H2'         7.2976   21.2159  -35.1483 H        14   C    0.0972
    454 H1'         6.3461   18.9372  -36.2755 H        14   C    0.2029
    455 H5          8.4022   21.1261  -40.5325 H        14   C    0.1928
    456 H6          6.4634   20.8990  -39.1048 H        14   C    0.1958
    457 H41        11.7244   20.1024  -39.4859 H        14   C    0.4234
    458 H42        10.7254   20.7782  -40.7530 H        14   C    0.4234
    459 HO2'        6.1767   20.0122  -33.7713 H        14   C    0.4186
    460 P           5.5870   24.4540  -35.0760 P.3      15   U    1.1662
    461 C5'         7.0250   24.1470  -33.0180 C.3      15   U    0.0558
    462 O5'         6.9780   24.1420  -34.4000 O.3      15   U   -0.4989
    463 C4'         8.3790   23.6390  -32.6250 C.3      15   U    0.1065
    464 O4'         8.7550   22.5310  -33.4660 O.3      15   U   -0.3548
    465 C3'         9.5170   24.5980  -32.8780 C.3      15   U    0.2022
    466 O3'         9.5180   25.5620  -31.8830 O.3      15   U   -0.5246
    467 C2'        10.6830   23.6450  -32.7500 C.3      15   U    0.0670
    468 O2'        10.8890   23.2130  -31.4130 O.3      15   U   -0.6139
    469 C1'        10.1540   22.5210  -33.6210 C.3      15   U    0.0674
    470 N1         10.4720   22.6630  -35.0610 N.pl3    15   U    0.0418
    471 C2         11.7730   22.4270  -35.4270 C.2      15   U    0.4687
    472 O2         12.6390   22.1460  -34.6130 O.2      15   U   -0.5477
    473 N3         12.0580   22.5530  -36.7530 N.pl3    15   U   -0.3549
    474 C4         11.1530   22.8740  -37.7300 C.2      15   U    0.5952
    475 O4         11.5600   22.9430  -38.8840 O.2      15   U   -0.5761
    476 C5          9.7910   23.1050  -37.2940 C.2      15   U   -0.3635
    477 C6          9.4990   22.9880  -35.9910 C.2      15   U   -0.1126
    478 OP1         4.7170   25.1850  -34.1300 O.co2    15   U   -0.7760
    479 OP2         5.8980   25.0350  -36.4010 O.co2    15   U   -0.7760
    480 H5'         6.8816   25.1601  -32.6422 H        15   U    0.0679
    481 H5''        6.2522   23.4904  -32.6183 H        15   U    0.0679
    482 H4'         8.3744   23.3309  -31.5795 H        15   U    0.1174
    483 H3'         9.4616   25.0408  -33.8725 H        15   U    0.0615
    484 H2'        11.5921   24.0752  -33.1701 H        15   U    0.0972
    485 H1'        10.5479   21.5713  -33.2590 H        15   U    0.1824
    486 H3         13.0140   22.3971  -37.0391 H        15   U    0.3154
    487 H5          9.0234   23.3672  -38.0071 H        15   U    0.1811
    488 H6          8.4840   23.1506  -35.6597 H        15   U    0.2188
    489 HO2'       11.2229   23.9440  -30.8879 H        15   U    0.4186
    490 P          10.0380   27.0210  -32.1940 P.3      16   U    1.1662
    491 C5'        12.2670   26.8290  -31.0390 C.3      16   U    0.0558
    492 O5'        11.5940   26.7990  -32.2450 O.3      16   U   -0.4989
    493 C4'        13.6940   26.5340  -31.3940 C.3      16   U    0.1065
    494 O4'        13.7430   25.4860  -32.3800 O.3      16   U   -0.3548
    495 C3'        14.4310   27.6310  -32.1340 C.3      16   U    0.2022
    496 O3'        14.6770   28.6890  -31.2540 O.3      16   U   -0.5246
    497 C2'        15.6760   26.8470  -32.4900 C.3      16   U    0.0670
    498 O2'        16.4790   26.6250  -31.3490 O.3      16   U   -0.6139
    499 C1'        15.0180   25.5660  -32.9740 C.3      16   U    0.0674
    500 N1         14.7660   25.5280  -34.3910 N.pl3    16   U    0.0418
    501 C2         15.8270   25.3110  -35.2340 C.2      16   U    0.4687
    502 O2         16.9760   25.1690  -34.8270 O.2      16   U   -0.5477
    503 N3         15.4860   25.2680  -36.5630 N.pl3    16   U   -0.3549
    504 C4         14.2150   25.4410  -37.0810 C.2      16   U    0.5952
    505 O4         14.0220   25.3950  -38.2870 O.2      16   U   -0.5761
    506 C5         13.1720   25.6480  -36.1240 C.2      16   U   -0.3635
    507 C6         13.4760   25.6940  -34.8260 C.2      16   U   -0.1126
    508 OP1         9.7040   27.7420  -30.9450 O.co2    16   U   -0.7760
    509 OP2         9.5920   27.4640  -33.5510 O.co2    16   U   -0.7760
    510 H5'        11.8749   26.0711  -30.3608 H        16   U    0.0679
    511 H5''       12.1872   27.8176  -30.5868 H        16   U    0.0679
    512 H4'        14.2506   26.2403  -30.5040 H        16   U    0.1174
    513 H3'        13.8889   27.9579  -33.0213 H        16   U    0.0615
    514 H2'        16.2395   27.3324  -33.2868 H        16   U    0.0972
    515 H1'        15.6193   24.7056  -32.6804 H        16   U    0.1824
    516 H3         16.2308   25.0942  -37.2226 H        16   U    0.3154
    517 H5         12.1489   25.7658  -36.4491 H        16   U    0.1811
    518 H6         12.6914   25.8652  -34.1039 H        16   U    0.2188
    519 HO2'       17.2608   26.1272  -31.5993 H        16   U    0.4186
    520 P          14.6930   30.2060  -31.7520 P.3      17   G    1.1662
    521 C5'        17.3260   30.3800  -31.8860 C.3      17   G    0.0558
    522 O5'        16.0720   30.3250  -32.5540 O.3      17   G   -0.4989
    523 C4'        18.4190   30.2040  -32.9160 C.3      17   G    0.1065
    524 O4'        18.1980   28.9560  -33.6020 O.3      17   G   -0.3548
    525 C3'        18.4180   31.2090  -34.0560 C.3      17   G    0.2022
    526 O3'        18.9460   32.4680  -33.5960 O.3      17   G   -0.5246
    527 C2'        19.2590   30.4310  -35.0650 C.3      17   G    0.0670
    528 O2'        20.6090   30.2720  -34.7270 O.3      17   G   -0.6139
    529 C1'        18.6350   29.0560  -34.9460 C.3      17   G    0.0191
    530 N1         17.5920   27.8400  -39.7670 N.pl3    17   G   -0.4787
    531 C2         18.7900   28.0040  -39.1280 C.2      17   G    0.7657
    532 N2         19.8600   27.8050  -39.9010 N.pl3    17   G   -0.9672
    533 N3         18.9330   28.3260  -37.8400 N.2      17   G   -0.6323
    534 C4         17.7380   28.4890  -37.2180 C.2      17   G    0.1222
    535 C5         16.4770   28.3580  -37.7570 C.2      17   G    0.1744
    536 C6         16.3550   28.0230  -39.1410 C.2      17   G    0.4770
    537 O6         15.3170   27.8630  -39.8160 O.2      17   G   -0.5597
    538 N7         15.5130   28.6080  -36.7910 N.2      17   G   -0.5709
    539 C8         16.1960   28.8850  -35.7040 C.2      17   G    0.1374
    540 N9         17.5520   28.8290  -35.8990 N.pl3    17   G    0.0492
    541 OP1        14.8090   30.9530  -30.4640 O.co2    17   G   -0.7760
    542 OP2        13.6230   30.4530  -32.7580 O.co2    17   G   -0.7760
    543 H5'        17.3848   29.5819  -31.1459 H        17   G    0.0679
    544 H5''       17.4376   31.3461  -31.3937 H        17   G    0.0679
    545 H4'        19.3936   30.1941  -32.4280 H        17   G    0.1174
    546 H3'        17.4054   31.3436  -34.4364 H        17   G    0.0615
    547 H2'        19.1457   30.8335  -36.0716 H        17   G    0.0972
    548 H1'        19.4092   28.3077  -35.1158 H        17   G    0.2006
    549 H1         17.6012   27.5730  -40.7410 H        17   G    0.3424
    550 H8         15.7382   29.1308  -34.7572 H        17   G    0.1640
    551 H21        19.7418   27.5585  -40.8733 H        17   G    0.4364
    552 H22        20.7878   27.9009  -39.5135 H        17   G    0.4364
    553 HO2'       21.0561   31.1195  -34.7861 H        17   G    0.4186
    554 P          18.8570   33.8720  -34.3870 P.3      18   U    1.1662
    555 C5'        16.2980   34.4130  -34.7650 C.3      18   U    0.0558
    556 O5'        17.5160   33.8320  -35.2510 O.3      18   U   -0.4989
    557 C4'        15.8370   35.4960  -35.7000 C.3      18   U    0.1065
    558 O4'        16.9970   36.2750  -36.0090 O.3      18   U   -0.3548
    559 C3'        15.3230   35.0390  -37.0410 C.3      18   U    0.2022
    560 O3'        14.2120   35.7680  -37.3710 O.3      18   U   -0.5246
    561 C2'        16.4300   35.3400  -38.0290 C.3      18   U    0.0670
    562 O2'        15.9060   35.5810  -39.3200 O.3      18   U   -0.6139
    563 C1'        17.0360   36.5740  -37.3820 C.3      18   U    0.0674
    564 N1         18.4520   36.8590  -37.7510 N.pl3    18   U    0.0418
    565 C2         18.7020   37.3350  -39.0070 C.2      18   U    0.4687
    566 O2         17.8090   37.5380  -39.8100 O.2      18   U   -0.5477
    567 N3         20.0240   37.5810  -39.2720 N.pl3    18   U   -0.3549
    568 C4         21.0800   37.3540  -38.4110 C.2      18   U    0.5952
    569 O4         22.2210   37.6040  -38.7610 O.2      18   U   -0.5761
    570 C5         20.7460   36.8530  -37.1200 C.2      18   U   -0.3635
    571 C6         19.4680   36.6270  -36.8480 C.2      18   U   -0.1126
    572 OP1        19.9880   33.8880  -35.3470 O.co2    18   U   -0.7760
    573 OP2        18.7200   34.9360  -33.3630 O.co2    18   U   -0.7760
    574 H5'        15.5308   33.6415  -34.7001 H        18   U    0.0679
    575 H5''       16.4690   34.8375  -33.7757 H        18   U    0.0679
    576 H4'        15.0903   36.1194  -35.2081 H        18   U    0.1174
    577 H3'        15.0964   33.9729  -37.0261 H        18   U    0.0615
    578 H2'        17.1537   34.5253  -38.0545 H        18   U    0.0972
    579 H1'        16.4152   37.4454  -37.5902 H        18   U    0.1824
    580 H3         20.2464   37.9633  -40.1800 H        18   U    0.3154
    581 H5         21.5124   36.6625  -36.3832 H        18   U    0.1811
    582 H6         19.2104   36.2427  -35.8721 H        18   U    0.2188
    583 HO2'       16.1100   36.4806  -39.5858 H        18   U    0.4186
    584 P          12.8260   35.1780  -36.8980 P.3      19   U    1.1662
    585 C5'        12.7040   34.1140  -39.2780 C.3      19   U    0.0558
    586 O5'        12.6700   33.9020  -37.8550 O.3      19   U   -0.4989
    587 C4'        11.8090   33.1880  -40.1280 C.3      19   U    0.1065
    588 O4'        12.6550   32.3900  -41.0060 O.3      19   U   -0.3548
    589 C3'        11.0110   32.0510  -39.4880 C.3      19   U    0.2022
    590 O3'        10.2590   31.2810  -40.4900 O.3      19   U   -0.5246
    591 C2'        12.2140   31.2760  -38.9350 C.3      19   U    0.0670
    592 O2'        12.0210   29.9620  -38.4600 O.3      19   U   -0.6139
    593 C1'        13.0560   31.2690  -40.2240 C.3      19   U    0.0674
    594 N1         14.5520   31.2900  -40.0250 N.pl3    19   U    0.0418
    595 C2         15.3130   30.9270  -41.1080 C.2      19   U    0.4687
    596 O2         14.8340   30.6340  -42.1930 O.2      19   U   -0.5477
    597 N3         16.6630   30.9300  -40.8940 N.pl3    19   U   -0.3549
    598 C4         17.3010   31.2580  -39.7260 C.2      19   U    0.5952
    599 O4         18.5170   31.2070  -39.6840 O.2      19   U   -0.5761
    600 C5         16.4450   31.6180  -38.6400 C.2      19   U   -0.3635
    601 C6         15.1270   31.6280  -38.8190 C.2      19   U   -0.1126
    602 OP1        11.7070   36.0150  -37.4020 O.co2    19   U   -0.7760
    603 OP2        13.0090   34.8760  -35.4430 O.co2    19   U   -0.7760
    604 H5'        13.7332   33.9771  -39.6097 H        19   U    0.0679
    605 H5''       12.4150   35.1460  -39.4770 H        19   U    0.0679
    606 H4'        11.1390   33.7973  -40.7346 H        19   U    0.1174
    607 H3'        10.3636   32.4132  -38.6894 H        19   U    0.0615
    608 H2'        12.7154   31.8720  -38.1724 H        19   U    0.0972
    609 H1'        12.8059   30.3663  -40.7814 H        19   U    0.1824
    610 H3         17.2481   30.6644  -41.6733 H        19   U    0.3154
    611 H5         16.8653   31.8802  -37.6803 H        19   U    0.1811
    612 H6         14.4884   31.9094  -37.9947 H        19   U    0.2188
    613 HO2'       11.4950   29.9854  -37.6573 H        19   U    0.4186
    614 P           9.5210   31.9110  -41.7930 P.3      20   C    1.1662
    615 C5'        11.3320   31.2360  -43.6330 C.3      20   C    0.0558
    616 O5'        10.7190   32.2360  -42.7940 O.3      20   C   -0.4989
    617 C4'        12.0610   31.9280  -44.7820 C.3      20   C    0.1065
    618 O4'        12.5810   33.2050  -44.3030 O.3      20   C   -0.3548
    619 C3'        13.3050   31.2730  -45.3730 C.3      20   C    0.2022
    620 O3'        13.0280   30.1960  -46.2430 O.3      20   C   -0.5246
    621 C2'        13.8280   32.4900  -46.1340 C.3      20   C    0.0670
    622 O2'        13.0510   32.8100  -47.2790 O.3      20   C   -0.6139
    623 C1'        13.7140   33.5830  -45.0610 C.3      20   C    0.0066
    624 N1         14.8700   33.7690  -44.1100 N.pl3    20   C   -0.0484
    625 C2         16.1690   33.9430  -44.5830 C.2      20   C    0.7538
    626 O2         16.4040   33.9420  -45.7880 O.2      20   C   -0.6252
    627 N3         17.1750   34.1120  -43.7050 N.2      20   C   -0.7584
    628 C4         16.9560   34.1360  -42.4090 C.2      20   C    0.8185
    629 N4         18.0070   34.3240  -41.6140 N.pl3    20   C   -0.9530
    630 C5         15.6480   33.9680  -41.8900 C.2      20   C   -0.5215
    631 C6         14.6440   33.8040  -42.7660 C.2      20   C    0.0053
    632 OP1         8.9740   33.2030  -41.3210 O.co2    20   C   -0.7760
    633 OP2         8.6320   30.9240  -42.4560 O.co2    20   C   -0.7760
    634 H5'        10.5637   30.5748  -44.0337 H        20   C    0.0679
    635 H5''       12.0439   30.6548  -43.0469 H        20   C    0.0679
    636 H4'        11.3492   32.1181  -45.5853 H        20   C    0.1174
    637 H3'        13.9999   30.9736  -44.5884 H        20   C    0.0615
    638 H2'        14.8710   32.3418  -46.4138 H        20   C    0.0972
    639 H1'        13.5065   34.5345  -45.5507 H        20   C    0.2029
    640 H5         15.4651   33.9718  -40.8256 H        20   C    0.1928
    641 H6         13.6344   33.6974  -42.3977 H        20   C    0.1958
    642 H41        17.8840   34.3496  -40.6118 H        20   C    0.4234
    643 H42        18.9275   34.4410  -42.0130 H        20   C    0.4234
    644 HO2'       13.1402   32.1120  -47.9321 H        20   C    0.4186
    645 P          13.6200   28.7040  -46.0800 P.3      21   A    1.1662
    646 C5'        15.1990   29.2350  -48.1870 C.3      21   A    0.0558
    647 O5'        15.0020   28.6380  -46.8940 O.3      21   A   -0.4989
    648 C4'        16.5290   29.9720  -48.1870 C.3      21   A    0.1065
    649 O4'        16.6940   30.6830  -46.9430 O.3      21   A   -0.3548
    650 C3'        17.8000   29.1400  -48.1030 C.3      21   A    0.2022
    651 O3'        18.1550   28.4320  -49.2730 O.3      21   A   -0.5246
    652 C2'        18.8570   30.1750  -47.7990 C.3      21   A    0.0670
    653 O2'        19.3350   30.7960  -48.9720 O.3      21   A   -0.6139
    654 C1'        18.0520   31.1070  -46.9020 C.3      21   A    0.0394
    655 N1         22.1420   31.5980  -43.8280 N.2      21   A   -0.7615
    656 C2         21.9980   31.6020  -45.1600 C.2      21   A    0.5875
    657 N3         20.8960   31.4600  -45.9080 N.2      21   A   -0.6997
    658 C4         19.8290   31.3040  -45.1370 C.2      21   A    0.3053
    659 C5         19.8080   31.2800  -43.7610 C.2      21   A    0.0515
    660 C6         21.0270   31.4310  -43.1000 C.2      21   A    0.7009
    661 N6         21.0980   31.4100  -41.7820 N.pl3    21   A   -0.9019
    662 N7         18.5220   31.1170  -43.2860 N.2      21   A   -0.6073
    663 C8         17.7930   31.0210  -44.3820 C.2      21   A    0.2006
    664 N9         18.5330   31.1340  -45.5320 N.pl3    21   A   -0.0251
    665 OP1        12.6830   27.8640  -46.8690 O.co2    21   A   -0.7760
    666 OP2        13.9020   28.4060  -44.6580 O.co2    21   A   -0.7760
    667 H5'        15.2105   28.4581  -48.9515 H        21   A    0.0679
    668 H5''       14.3915   29.9379  -48.3921 H        21   A    0.0679
    669 H4'        16.5813   30.6621  -49.0291 H        21   A    0.1174
    670 H3'        17.7232   28.4442  -47.2675 H        21   A    0.0615
    671 H2'        19.6801   29.7271  -47.2423 H        21   A    0.0972
    672 H1'        18.1117   32.1162  -47.3095 H        21   A    0.2007
    673 H2         22.9126   31.7414  -45.7172 H        21   A    0.0473
    674 H8         16.7238   30.8691  -44.3745 H        21   A    0.1553
    675 H61        20.2330   31.1348  -41.3391 H        21   A    0.4115
    676 H62        21.9345   31.6457  -41.2674 H        21   A    0.4115
    677 HO2'       20.0031   31.4456  -48.7412 H        21   A    0.4186
    678 P          18.1280   26.8320  -49.1420 P.3      22   C    1.1662
    679 C5'        20.4360   26.1380  -48.1020 C.3      22   C    0.0558
    680 O5'        19.1070   26.5360  -47.8950 O.3      22   C   -0.4989
    681 C4'        21.2460   26.5680  -46.9180 C.3      22   C    0.1065
    682 O4'        20.5780   27.6830  -46.3020 O.3      22   C   -0.3548
    683 C3'        21.2990   25.5720  -45.7860 C.3      22   C    0.2022
    684 O3'        22.2260   24.5480  -46.1050 O.3      22   C   -0.5246
    685 C2'        21.6430   26.4380  -44.5640 C.3      22   C    0.0670
    686 O2'        22.9780   26.8760  -44.3770 O.3      22   C   -0.6139
    687 C1'        20.7650   27.6330  -44.8930 C.3      22   C    0.0066
    688 N1         19.4450   27.5770  -44.2360 N.pl3    22   C   -0.0484
    689 C2         19.4260   27.6840  -42.8380 C.2      22   C    0.7538
    690 O2         20.4960   27.8030  -42.2120 O.2      22   C   -0.6252
    691 N3         18.2170   27.6580  -42.2170 N.2      22   C   -0.7584
    692 C4         17.0940   27.5460  -42.9440 C.2      22   C    0.8185
    693 N4         15.9330   27.5270  -42.2860 N.pl3    22   C   -0.9530
    694 C5         17.1030   27.4500  -44.3690 C.2      22   C   -0.5215
    695 C6         18.2920   27.4550  -44.9750 C.2      22   C    0.0053
    696 OP1        18.7000   26.2900  -50.4160 O.co2    22   C   -0.7760
    697 OP2        16.7330   26.4900  -48.7170 O.co2    22   C   -0.7760
    698 H5'        20.4838   25.0541  -48.2070 H        22   C    0.0679
    699 H5''       20.8245   26.6114  -49.0037 H        22   C    0.0679
    700 H4'        22.2529   26.8493  -47.2263 H        22   C    0.1174
    701 H3'        20.3113   25.1322  -45.6480 H        22   C    0.0615
    702 H2'        21.2828   25.9544  -43.6560 H        22   C    0.0972
    703 H1'        21.2764   28.5416  -44.5750 H        22   C    0.2029
    704 H5         16.1850   27.3764  -44.9331 H        22   C    0.1928
    705 H6         18.3487   27.3629  -46.0496 H        22   C    0.1958
    706 H41        15.9224   27.5951  -41.2784 H        22   C    0.4234
    707 H42        15.0650   27.4445  -42.7957 H        22   C    0.4234
    708 HO2'       23.5361   26.1231  -44.1688 H        22   C    0.4186
    709 P          21.7480   23.0410  -45.8670 P.3      23   A    1.1662
    710 C5'        23.2410   22.7700  -43.7530 C.3      23   A    0.0558
    711 O5'        21.9180   22.8930  -44.2640 O.3      23   A   -0.4989
    712 C4'        23.3190   23.0480  -42.2680 C.3      23   A    0.1065
    713 O4'        22.6880   24.3190  -41.9940 O.3      23   A   -0.3548
    714 C3'        22.5370   22.1460  -41.3190 C.3      23   A    0.2022
    715 O3'        23.1140   20.8550  -41.1240 O.3      23   A   -0.5246
    716 C2'        22.5210   23.0090  -40.0590 C.3      23   A    0.0670
    717 O2'        23.7780   23.2540  -39.4540 O.3      23   A   -0.6139
    718 C1'        22.0340   24.2760  -40.7270 C.3      23   A    0.0394
    719 N1         17.4910   24.9750  -38.4830 N.2      23   A   -0.7615
    720 C2         18.7290   24.9150  -37.9790 C.2      23   A    0.5875
    721 N3         19.8800   24.7190  -38.6290 N.2      23   A   -0.6997
    722 C4         19.6620   24.5670  -39.9510 C.2      23   A    0.3053
    723 C5         18.4450   24.6060  -40.6080 C.2      23   A    0.0515
    724 C6         17.3140   24.8110  -39.8110 C.2      23   A    0.7009
    725 N6         16.0950   24.8600  -40.3410 N.pl3    23   A   -0.9019
    726 N7         18.5900   24.4210  -41.9710 N.2      23   A   -0.6073
    727 C8         19.8900   24.2770  -42.1100 C.2      23   A    0.2006
    728 N9         20.5920   24.3520  -40.9320 N.pl3    23   A   -0.0251
    729 OP1        22.7230   22.1340  -46.5450 O.co2    23   A   -0.7760
    730 OP2        20.3180   23.0100  -46.2740 O.co2    23   A   -0.7760
    731 H5'        23.5933   21.7551  -43.9371 H        23   A    0.0679
    732 H5''       23.8899   23.4705  -44.2787 H        23   A    0.0679
    733 H4'        24.3634   23.0850  -41.9583 H        23   A    0.1174
    734 H3'        21.5182   22.0320  -41.6894 H        23   A    0.0615
    735 H2'        21.7966   22.6390  -39.3335 H        23   A    0.0972
    736 H1'        22.3530   25.1336  -40.1347 H        23   A    0.2007
    737 H2         18.8082   25.0412  -36.9093 H        23   A    0.0473
    738 H8         20.3639   24.1141  -43.0667 H        23   A    0.1553
    739 H61        15.4574   25.0632  -39.5845 H        23   A    0.4115
    740 H62        15.8537   24.7210  -41.3119 H        23   A    0.4115
    741 HO2'       24.0907   22.4521  -39.0288 H        23   A    0.4186
    742 P          22.1070   19.5990  -41.1550 P.3      24   G    1.1662
    743 C5'        22.5300   19.7260  -38.5210 C.3      24   G    0.0558
    744 O5'        21.6310   19.4620  -39.6100 O.3      24   G   -0.4989
    745 C4'        21.8430   19.9050  -37.1720 C.3      24   G    0.1065
    746 O4'        21.2360   21.2170  -37.1290 O.3      24   G   -0.3548
    747 C3'        20.6570   19.0380  -36.7470 C.3      24   G    0.2022
    748 O3'        20.9700   17.6960  -36.3410 O.3      24   G   -0.5246
    749 C2'        20.2180   19.8660  -35.5370 C.3      24   G    0.0670
    750 O2'        21.1170   19.8170  -34.4400 O.3      24   G   -0.6139
    751 C1'        20.1780   21.2360  -36.1800 C.3      24   G    0.0191
    752 N1         15.1220   21.9520  -35.8960 N.pl3    24   G   -0.4787
    753 C2         16.0170   21.7840  -34.8730 C.2      24   G    0.7657
    754 N2         15.4560   21.7990  -33.6600 N.pl3    24   G   -0.9672
    755 N3         17.3370   21.5940  -35.0250 N.2      24   G   -0.6323
    756 C4         17.6820   21.6080  -36.3400 C.2      24   G    0.1222
    757 C5         16.8520   21.7790  -37.4280 C.2      24   G    0.1744
    758 C6         15.4800   21.9680  -37.2350 C.2      24   G    0.4770
    759 O6         14.6330   22.1130  -38.1130 O.2      24   G   -0.5597
    760 N7         17.5430   21.7300  -38.6180 N.2      24   G   -0.5709
    761 C8         18.7750   21.5390  -38.2410 C.2      24   G    0.1374
    762 N9         18.9310   21.4580  -36.8800 N.pl3    24   G    0.0492
    763 OP1        22.9480   18.4400  -41.5130 O.co2    24   G   -0.7760
    764 OP2        20.9320   19.9280  -42.0080 O.co2    24   G   -0.7760
    765 H5'        23.0817   20.6385  -38.7471 H        24   G    0.0679
    766 H5''       23.2376   18.9004  -38.4451 H        24   G    0.0679
    767 H4'        22.6021   19.8532  -36.3915 H        24   G    0.1174
    768 H3'        19.8840   19.0382  -37.5155 H        24   G    0.0615
    769 H2'        19.2185   19.5691  -35.2192 H        24   G    0.0972
    770 H1'        20.3441   22.0145  -35.4354 H        24   G    0.2006
    771 H1         14.1468   22.0709  -35.6617 H        24   G    0.3424
    772 H8         19.5977   21.4524  -38.9353 H        24   G    0.1640
    773 H21        16.0285   21.6745  -32.8373 H        24   G    0.4364
    774 H22        14.4596   21.9348  -33.5661 H        24   G    0.4364
    775 HO2'       21.1130   18.9348  -34.0616 H        24   G    0.4186
    776 P          19.9360   16.4590  -36.4730 P.3      25   G    1.1662
    777 C5'        19.0930   16.5240  -34.0240 C.3      25   G    0.0558
    778 O5'        18.7760   16.6540  -35.3820 O.3      25   G   -0.4989
    779 C4'        17.8780   16.8430  -33.1940 C.3      25   G    0.1065
    780 O4'        17.4290   18.2010  -33.4150 O.3      25   G   -0.3548
    781 C3'        16.6500   16.0250  -33.5210 C.3      25   G    0.2022
    782 O3'        16.7410   14.7720  -32.8860 O.3      25   G   -0.5246
    783 C2'        15.5860   16.8830  -32.8780 C.3      25   G    0.0670
    784 O2'        15.6820   16.7960  -31.4710 O.3      25   G   -0.6139
    785 C1'        16.0230   18.2350  -33.4060 C.3      25   G    0.0191
    786 N1         12.0530   19.1220  -36.5080 N.pl3    25   G   -0.4787
    787 C2         12.0560   18.8960  -35.1600 C.2      25   G    0.7657
    788 N2         10.8480   18.9020  -34.5910 N.pl3    25   G   -0.9672
    789 N3         13.1460   18.6710  -34.4300 N.2      25   G   -0.6323
    790 C4         14.2760   18.6930  -35.1840 C.2      25   G    0.1222
    791 C5         14.3680   18.8970  -36.5330 C.2      25   G    0.1744
    792 C6         13.2150   19.1510  -37.2600 C.2      25   G    0.4770
    793 O6         13.1590   19.3510  -38.4600 O.2      25   G   -0.5597
    794 N7         15.6670   18.8500  -36.9680 N.2      25   G   -0.5709
    795 C8         16.3630   18.6140  -35.8840 C.2      25   G    0.1374
    796 N9         15.5800   18.5080  -34.7580 N.pl3    25   G    0.0492
    797 OP1        20.7340   15.2800  -36.0480 O.co2    25   G   -0.7760
    798 OP2        19.3350   16.5190  -37.8270 O.co2    25   G   -0.7760
    799 H5'        19.4133   15.5020  -33.8217 H        25   G    0.0679
    800 H5''       19.8978   17.2141  -33.7708 H        25   G    0.0679
    801 H4'        18.1222   16.7147  -32.1395 H        25   G    0.1174
    802 H3'        16.4999   15.9271  -34.5962 H        25   G    0.0615
    803 H2'        14.5891   16.6175  -33.2298 H        25   G    0.0972
    804 H1'        15.6764   19.0228  -32.7371 H        25   G    0.2006
    805 H1         11.1694   19.2736  -36.9732 H        25   G    0.3424
    806 H8         17.4383   18.5132  -35.8751 H        25   G    0.1640
    807 H21        10.7565   18.7391  -33.5984 H        25   G    0.4364
    808 H22        10.0258   19.0694  -35.1532 H        25   G    0.4364
    809 HO2'       15.0034   17.3433  -31.0690 H        25   G    0.4186
    810 P          16.0990   13.4660  -33.5520 P.3      26   C    1.1662
    811 C5'        13.8790   13.7140  -32.2820 C.3      26   C    0.0558
    812 O5'        14.5170   13.7240  -33.5320 O.3      26   C   -0.4989
    813 C4'        12.3770   13.7450  -32.4020 C.3      26   C    0.1065
    814 O4'        11.9280   15.0050  -32.9380 O.3      26   C   -0.3548
    815 C3'        11.7990   12.7210  -33.3520 C.3      26   C    0.2022
    816 O3'        11.6860   11.4600  -32.6750 O.3      26   C   -0.5246
    817 C2'        10.4700   13.3700  -33.6310 C.3      26   C    0.0670
    818 O2'         9.6890   13.2000  -32.4600 O.3      26   C   -0.6139
    819 C1'        10.8820   14.8220  -33.8750 C.3      26   C    0.0066
    820 N1         11.3700   15.1750  -35.2880 N.pl3    26   C   -0.0484
    821 C2         10.4600   15.4390  -36.3440 C.2      26   C    0.7538
    822 O2          9.2390   15.3760  -36.1410 O.2      26   C   -0.6252
    823 N3         10.9380   15.7570  -37.5860 N.2      26   C   -0.7584
    824 C4         12.2480   15.8210  -37.8140 C.2      26   C    0.8185
    825 N4         12.6620   16.1190  -39.0390 N.pl3    26   C   -0.9530
    826 C5         13.1900   15.5770  -36.7790 C.2      26   C   -0.5215
    827 C6         12.7250   15.2710  -35.5480 C.2      26   C    0.0053
    828 OP1        16.5330   12.4690  -32.5470 O.co2    26   C   -0.7760
    829 OP2        16.4960   13.3810  -34.9750 O.co2    26   C   -0.7760
    830 H5'        14.2028   14.5882  -31.7171 H        26   C    0.0679
    831 H5''       14.1727   12.8142  -31.7415 H        26   C    0.0679
    832 H4'        11.9382   13.6018  -31.4146 H        26   C    0.1174
    833 H3'        12.3986   12.6347  -34.2582 H        26   C    0.0615
    834 H2'         9.9851   12.9361  -34.5055 H        26   C    0.0972
    835 H1'        10.0508   15.4763  -33.6122 H        26   C    0.2029
    836 H5         14.2512   15.6347  -36.9714 H        26   C    0.1928
    837 H6         13.4286   15.0971  -34.7473 H        26   C    0.1958
    838 H41        13.6506   16.1735  -39.2387 H        26   C    0.4234
    839 H42        11.9885   16.2913  -39.7717 H        26   C    0.4234
    840 HO2'        9.1091   12.4428  -32.5693 H        26   C    0.4186
    841 P          12.1190   10.1130  -33.4080 P.3      27   U    1.1662
    842 C5'         9.6530    9.4920  -33.7330 C.3      27   U    0.0558
    843 O5'        10.8490    9.8940  -34.3300 O.3      27   U   -0.4989
    844 C4'         8.5420    9.6730  -34.7370 C.3      27   U    0.1065
    845 O4'         8.4360   11.0770  -35.0850 O.3      27   U   -0.3548
    846 C3'         8.7210    9.0100  -36.0940 C.3      27   U    0.2022
    847 O3'         8.3650    7.6530  -36.0250 O.3      27   U   -0.5246
    848 C2'         7.6620    9.7840  -36.8580 C.3      27   U    0.0670
    849 O2'         6.3450    9.4730  -36.4480 O.3      27   U   -0.6139
    850 C1'         7.9580   11.1930  -36.4150 C.3      27   U    0.0674
    851 N1          8.9350   11.8060  -37.3400 N.pl3    27   U    0.0418
    852 C2          8.4490   12.3070  -38.5310 C.2      27   U    0.4687
    853 O2          7.2700   12.2560  -38.8450 O.2      27   U   -0.5477
    854 N3          9.3860   12.8570  -39.3680 N.pl3    27   U   -0.3549
    855 C4         10.7410   12.9690  -39.1040 C.2      27   U    0.5952
    856 O4         11.4760   13.5000  -39.9380 O.2      27   U   -0.5761
    857 C5         11.1850   12.4280  -37.8350 C.2      27   U   -0.3635
    858 C6         10.2810   11.8790  -37.0120 C.2      27   U   -0.1126
    859 OP1        12.2300    9.0610  -32.3970 O.co2    27   U   -0.7760
    860 OP2        13.2920   10.3700  -34.2630 O.co2    27   U   -0.7760
    861 H5'         9.7200    8.4438  -33.4418 H        27   U    0.0679
    862 H5''        9.4570   10.1056  -32.8537 H        27   U    0.0679
    863 H4'         7.6022    9.3405  -34.2962 H        27   U    0.1174
    864 H3'         9.7209    9.1583  -36.5017 H        27   U    0.0615
    865 H2'         7.7828    9.6699  -37.9353 H        27   U    0.0972
    866 H1'         7.0373   11.7764  -36.4204 H        27   U    0.1824
    867 H3          9.0590   13.2117  -40.2553 H        27   U    0.3154
    868 H5         12.2279   12.4666  -37.5569 H        27   U    0.1811
    869 H6         10.6106   11.4809  -36.0637 H        27   U    0.2188
    870 HO2'        6.1284    8.5776  -36.7180 H        27   U    0.4186
    871 P           9.2050    6.3780  -36.5000 P.3      28   G    1.1662
    872 C5'         7.9420    5.8210  -38.6780 C.3      28   G    0.0558
    873 O5'         9.0920    6.3630  -38.0850 O.3      28   G   -0.4989
    874 C4'         7.6260    6.5320  -39.9720 C.3      28   G    0.1065
    875 O4'         7.6660    7.9880  -39.8230 O.3      28   G   -0.3548
    876 C3'         8.6150    6.2800  -41.0980 C.3      28   G    0.2022
    877 O3'         8.4650    5.0420  -41.7360 O.3      28   G   -0.5246
    878 C2'         8.1400    7.3700  -42.0240 C.3      28   G    0.0670
    879 O2'         6.8490    7.0490  -42.5280 O.3      28   G   -0.6139
    880 C1'         8.1370    8.5490  -41.0500 C.3      28   G    0.0191
    881 N1         11.6360   11.8560  -43.0000 N.pl3    28   G   -0.4787
    882 C2         10.4360   11.4780  -43.5100 C.2      28   G    0.7657
    883 N2         10.1250   12.0460  -44.6740 N.pl3    28   G   -0.9672
    884 N3          9.6010   10.6230  -42.9170 N.2      28   G   -0.6323
    885 C4         10.0660   10.1130  -41.7460 C.2      28   G    0.1222
    886 C5         11.2640   10.4230  -41.1610 C.2      28   G    0.1744
    887 C6         12.1380   11.3480  -41.8020 C.2      28   G    0.4770
    888 O6         13.2470   11.7540  -41.4040 O.2      28   G   -0.5597
    889 N7         11.4100    9.7350  -39.9700 N.2      28   G   -0.5709
    890 C8         10.3190    9.0380  -39.8590 C.2      28   G    0.1374
    891 N9          9.4490    9.2010  -40.9000 N.pl3    28   G    0.0492
    892 OP1         8.3180    5.2950  -36.0100 O.co2    28   G   -0.7760
    893 OP2        10.6290    6.4200  -36.0870 O.co2    28   G   -0.7760
    894 H5'         7.1005    5.9313  -37.9940 H        28   G    0.0679
    895 H5''        8.1057    4.7624  -38.8796 H        28   G    0.0679
    896 H4'         6.6302    6.2376  -40.3033 H        28   G    0.1174
    897 H3'         9.6431    6.4450  -40.7756 H        28   G    0.0615
    898 H2'         8.8492    7.5327  -42.8356 H        28   G    0.0972
    899 H1'         7.4155    9.2887  -41.3971 H        28   G    0.2006
    900 H1         12.1874   12.5323  -43.5086 H        28   G    0.3424
    901 H8         10.1180    8.3886  -39.0198 H        28   G    0.1640
    902 H21         9.2478   11.8272  -45.1243 H        28   G    0.4364
    903 H22        10.7664   12.6954  -45.1063 H        28   G    0.4364
    904 HO2'        6.5304    7.7701  -43.0758 H        28   G    0.4186
    905 P           9.5450    3.8860  -41.5510 P.3      29   A    1.1662
    906 C5'        11.5240    3.9820  -43.2500 C.3      29   A    0.0558
    907 O5'        10.1860    3.6430  -42.9770 O.3      29   A   -0.4989
    908 C4'        11.5600    4.2460  -44.7360 C.3      29   A    0.1065
    909 O4'        10.2820    3.8470  -45.2440 O.3      29   A   -0.3548
    910 C3'        11.5930    5.6820  -45.1780 C.3      29   A    0.2022
    911 O3'        12.9000    6.1980  -45.1040 O.3      29   A   -0.5246
    912 C2'        11.0840    5.5740  -46.5940 C.3      29   A    0.0670
    913 O2'        12.1370    5.2230  -47.4510 O.3      29   A   -0.6139
    914 C1'        10.0450    4.4680  -46.4740 C.3      29   A    0.0394
    915 N1          6.3540    7.1470  -48.7450 N.2      29   A   -0.7615
    916 C2          7.6540    6.9640  -49.0190 C.2      29   A    0.5875
    917 N3          8.5680    6.2500  -48.3820 N.2      29   A   -0.6997
    918 C4          8.0100    5.6760  -47.3210 C.2      29   A    0.3053
    919 C5          6.6980    5.7720  -46.8890 C.2      29   A    0.0515
    920 C6          5.8330    6.5610  -47.6650 C.2      29   A    0.7009
    921 N6          4.5470    6.7860  -47.4010 N.pl3    29   A   -0.9019
    922 N7          6.5100    5.0310  -45.7340 N.2      29   A   -0.6073
    923 C8          7.6940    4.5130  -45.5070 C.2      29   A    0.2006
    924 N9          8.6470    4.8660  -46.4300 N.pl3    29   A   -0.0251
    925 OP1         8.6820    2.7070  -41.3280 O.co2    29   A   -0.7760
    926 OP2        10.6110    4.3080  -40.6150 O.co2    29   A   -0.7760
    927 H5'        12.1892    3.1585  -42.9903 H        29   A    0.0679
    928 H5''       11.8047    4.8807  -42.7007 H        29   A    0.0679
    929 H4'        12.3595    3.6770  -45.2105 H        29   A    0.1174
    930 H3'        10.9124    6.2818  -44.5738 H        29   A    0.0615
    931 H2'        10.6207    6.5081  -46.9116 H        29   A    0.0972
    932 H1'        10.1905    3.7462  -47.2777 H        29   A    0.2007
    933 H2          8.0110    7.4806  -49.8977 H        29   A    0.0473
    934 H8          7.9007    3.8657  -44.6676 H        29   A    0.1553
    935 H61         3.6778    6.6693  -47.9019 H        29   A    0.4115
    936 H62         4.4072    7.1654  -46.4755 H        29   A    0.4115
    937 HO2'       12.4724    6.0110  -47.8849 H        29   A    0.4186
    938 P          13.0280    7.5860  -44.3360 P.3      30   G    1.1662
    939 C5'        13.1640    9.0220  -46.4000 C.3      30   G    0.0558
    940 O5'        12.3280    8.4740  -45.4410 O.3      30   G   -0.4989
    941 C4'        12.3490    9.6830  -47.4730 C.3      30   G    0.1065
    942 O4'        11.2490    8.8270  -47.8210 O.3      30   G   -0.3548
    943 C3'        11.7200   10.9860  -47.0580 C.3      30   G    0.2022
    944 O3'        12.6240   12.0450  -47.2670 O.3      30   G   -0.5246
    945 C2'        10.5580   11.0350  -48.0290 C.3      30   G    0.0670
    946 O2'        10.9310   11.3680  -49.3530 O.3      30   G   -0.6139
    947 C1'        10.0830    9.5990  -48.0030 C.3      30   G    0.0191
    948 N1          5.1800    9.8110  -46.6660 N.pl3    30   G   -0.4787
    949 C2          5.8600   10.2150  -47.7660 C.2      30   G    0.7657
    950 N2          5.0600   10.7880  -48.6610 N.pl3    30   G   -0.9672
    951 N3          7.1400   10.1140  -48.0090 N.2      30   G   -0.6323
    952 C4          7.7760    9.5130  -46.9950 C.2      30   G    0.1222
    953 C5          7.2660    9.0390  -45.8230 C.2      30   G    0.1744
    954 C6          5.8660    9.1520  -45.5660 C.2      30   G    0.4770
    955 O6          5.2930    8.7460  -44.5400 O.2      30   G   -0.5597
    956 N7          8.2790    8.5030  -45.0570 N.2      30   G   -0.5709
    957 C8          9.3520    8.6570  -45.7640 C.2      30   G    0.1374
    958 N9          9.1160    9.2720  -46.9580 N.pl3    30   G    0.0492
    959 OP1        14.4620    7.9130  -44.2340 O.co2    30   G   -0.7760
    960 OP2        12.2240    7.5930  -43.0840 O.co2    30   G   -0.7760
    961 H5'        13.8134    9.7621  -45.9324 H        30   G    0.0679
    962 H5''       13.7733    8.2337  -46.8421 H        30   G    0.0679
    963 H4'        12.9725    9.8461  -48.3520 H        30   G    0.1174
    964 H3'        11.3759   10.9524  -46.0243 H        30   G    0.0615
    965 H2'         9.7795   11.7062  -47.6664 H        30   G    0.0972
    966 H1'         9.6483    9.3553  -48.9724 H        30   G    0.2006
    967 H1          4.1841    9.9695  -46.6092 H        30   G    0.3424
    968 H8         10.3307    8.3328  -45.4424 H        30   G    0.1640
    969 H21         4.0710   10.8717  -48.4740 H        30   G    0.4364
    970 H22         5.4416   11.1394  -49.5276 H        30   G    0.4364
    971 HO2'       10.1461   11.4217  -49.9032 H        30   G    0.4186
    972 P          13.2990   12.8490  -46.0590 P.3      31   A    1.1662
    973 C5'        11.5070   14.5580  -46.8590 C.3      31   A    0.0558
    974 O5'        12.2530   14.0120  -45.7770 O.3      31   A   -0.4989
    975 C4'        10.7090   15.7460  -46.3780 C.3      31   A    0.1065
    976 O4'         9.6100   15.2120  -45.6060 O.3      31   A   -0.3548
    977 C3'        11.5340   16.6520  -45.4800 C.3      31   A    0.2022
    978 O3'        11.4530   18.0390  -45.9060 O.3      31   A   -0.5246
    979 C2'        10.9710   16.3300  -44.0940 C.3      31   A    0.0670
    980 O2'        11.0790   17.4280  -43.1850 O.3      31   A   -0.6139
    981 C1'         9.5220   15.9580  -44.4440 C.3      31   A    0.0394
    982 N1          4.8560   15.0010  -42.4850 N.2      31   A   -0.7615
    983 C2          5.2900   15.5930  -43.6110 C.2      31   A    0.5875
    984 N3          6.5370   15.8060  -44.0810 N.2      31   A   -0.6997
    985 C4          7.4240   15.3000  -43.2340 C.2      31   A    0.3053
    986 C5          7.1480   14.6630  -42.0330 C.2      31   A    0.0515
    987 C6          5.7860   14.5150  -41.6470 C.2      31   A    0.7009
    988 N6          5.3840   13.9160  -40.5170 N.pl3    31   A   -0.9019
    989 N7          8.3310   14.2950  -41.4210 N.2      31   A   -0.6073
    990 C8          9.2580   14.7080  -42.2520 C.2      31   A    0.2006
    991 N9          8.7770   15.3100  -43.3750 N.pl3    31   A   -0.0251
    992 OP1        14.5210   13.4360  -46.6660 O.co2    31   A   -0.7760
    993 OP2        13.3610   12.0520  -44.8210 O.co2    31   A   -0.7760
    994 H5'        12.1905   14.8755  -47.6465 H        31   A    0.0679
    995 H5''       10.8288   13.8001  -47.2510 H        31   A    0.0679
    996 H4'        10.3283   16.3100  -47.2295 H        31   A    0.1174
    997 H3'        12.5753   16.3324  -45.5194 H        31   A    0.0615
    998 H2'        11.4839   15.4608  -43.6823 H        31   A    0.0972
    999 H1'         8.9996   16.8824  -44.6901 H        31   A    0.2007
   1000 H2          4.5032   15.9629  -44.2517 H        31   A    0.0473
   1001 H8         10.3135   14.5814  -42.0618 H        31   A    0.1553
   1002 HO2'       10.9330   17.1174  -42.2885 H        31   A    0.4186
   1003 H61         4.5371   14.2142  -40.0544 H        31   A    0.4115
   1004 H62         6.1617   13.3124  -40.2913 H        31   A    0.4115
   1005 P          12.6300   18.7320  -46.7860 P.3      32   A    1.1662
   1006 C5'        11.4320   18.5310  -49.1140 C.3      32   A    0.0558
   1007 O5'        12.4500   18.0780  -48.2420 O.3      32   A   -0.4989
   1008 C4'        11.8360   18.2310  -50.5340 C.3      32   A    0.1065
   1009 O4'        10.7430   18.3630  -51.4780 O.3      32   A   -0.3548
   1010 C3'        12.8620   19.2020  -51.0550 C.3      32   A    0.2022
   1011 O3'        13.7140   18.4530  -51.8700 O.3      32   A   -0.5246
   1012 C2'        11.9900   20.2190  -51.8100 C.3      32   A    0.0670
   1013 O2'        12.7170   21.1130  -52.6470 O.3      32   A   -0.6139
   1014 C1'        11.0900   19.2220  -52.5410 C.3      32   A    0.0394
   1015 N1          6.5920   21.3900  -51.4190 N.2      32   A   -0.7615
   1016 C2          7.6730   21.0960  -50.6720 C.2      32   A    0.5875
   1017 N3          8.8210   20.5150  -51.0490 N.2      32   A   -0.6997
   1018 C4          8.8060   20.2390  -52.3710 C.2      32   A    0.3053
   1019 C5          7.7760   20.4820  -53.2770 C.2      32   A    0.0515
   1020 C6          6.6210   21.0890  -52.7430 C.2      32   A    0.7009
   1021 N6          5.5670   21.3900  -53.5000 N.pl3    32   A   -0.9019
   1022 N7          8.1130   20.0750  -54.5560 N.2      32   A   -0.6073
   1023 C8          9.3350   19.5940  -54.3890 C.2      32   A    0.2006
   1024 N9          9.8180   19.6720  -53.0970 N.pl3    32   A   -0.0251
   1025 OP1        13.9540   18.3630  -46.2430 O.co2    32   A   -0.7760
   1026 OP2        12.3010   20.1700  -46.8570 O.co2    32   A   -0.7760
   1027 H5'        11.2970   19.6056  -48.9915 H        32   A    0.0679
   1028 H5''       10.4987   18.0172  -48.8837 H        32   A    0.0679
   1029 H4'        12.2379   17.2192  -50.5878 H        32   A    0.1174
   1030 H3'        13.4087   19.6764  -50.2400 H        32   A    0.0615
   1031 H2'        11.3962   20.7901  -51.0963 H        32   A    0.0972
   1032 H1'        11.6609   18.6794  -53.2944 H        32   A    0.2007
   1033 H2          7.6063   21.3645  -49.6280 H        32   A    0.0473
   1034 H8          9.9101   19.1730  -55.2004 H        32   A    0.1553
   1035 H61         4.7576   21.8305  -53.0866 H        32   A    0.4115
   1036 H62         5.5773   21.1777  -54.4874 H        32   A    0.4115
   1037 HO2'       12.1066   21.7132  -53.0814 H        32   A    0.4186
   1038 P          15.2870   18.6690  -51.8610 P.3      33   A    1.1662
   1039 C5'        15.3380   16.9780  -49.8120 C.3      33   A    0.0558
   1040 O5'        15.8470   17.3980  -51.0750 O.3      33   A   -0.4989
   1041 C4'        15.5190   15.4840  -49.6720 C.3      33   A    0.1065
   1042 O4'        14.2360   14.8630  -49.3800 O.3      33   A   -0.3548
   1043 C3'        16.0760   14.8090  -50.9200 C.3      33   A    0.2022
   1044 O3'        17.5130   14.9260  -50.8830 O.3      33   A   -0.5246
   1045 C2'        15.4370   13.4280  -50.7550 C.3      33   A    0.0670
   1046 O2'        16.0470   12.6350  -49.7460 O.3      33   A   -0.6139
   1047 C1'        14.0260   13.8010  -50.2810 C.3      33   A    0.0394
   1048 N1         12.6030   15.5740  -54.9730 N.2      33   A   -0.7615
   1049 C2         13.7950   15.1170  -54.5550 C.2      33   A    0.5875
   1050 N3         14.1270   14.6550  -53.3490 N.2      33   A   -0.6997
   1051 C4         13.0810   14.7040  -52.5090 C.2      33   A    0.3053
   1052 C5         11.8030   15.1470  -52.8020 C.2      33   A    0.0515
   1053 C6         11.5670   15.6010  -54.0980 C.2      33   A    0.7009
   1054 N6         10.3660   16.0460  -54.4570 N.pl3    33   A   -0.9019
   1055 N7         10.9580   15.0560  -51.7290 N.2      33   A   -0.6073
   1056 C8         11.7320   14.5840  -50.8020 C.2      33   A    0.2006
   1057 N9         13.0170   14.3400  -51.1910 N.pl3    33   A   -0.0251
   1058 OP1        15.6810   19.8650  -51.0700 O.co2    33   A   -0.7760
   1059 OP2        15.6440   18.4860  -53.2940 O.co2    33   A   -0.7760
   1060 H5'        14.2781   17.2239  -49.7468 H        33   A    0.0679
   1061 H5''       15.8793   17.4865  -49.0142 H        33   A    0.0679
   1062 H4'        16.1965   15.2916  -48.8401 H        33   A    0.1174
   1063 H3'        15.6852   15.2963  -51.8133 H        33   A    0.0615
   1064 H2'        15.4034   12.8954  -51.7054 H        33   A    0.0972
   1065 H1'        13.5996   12.9565  -49.7397 H        33   A    0.2007
   1066 H2         14.5861   15.1248  -55.2902 H        33   A    0.0473
   1067 H8         11.3853   14.3977  -49.7963 H        33   A    0.1553
   1068 HO2'       16.9779   12.5181  -49.9494 H        33   A    0.4186
   1069 H61         9.4061   16.0545  -54.1429 H        33   A    0.4115
   1070 H62        10.4378   16.5393  -55.3354 H        33   A    0.4115
   1071 P          18.5140   14.3620  -52.0130 P.3      34   G    1.1662
   1072 C5'        18.9980   11.9300  -52.6550 C.3      34   G    0.0558
   1073 O5'        18.2510   12.8100  -51.8640 O.3      34   G   -0.4989
   1074 C4'        18.2380   10.6330  -52.7900 C.3      34   G    0.1065
   1075 O4'        17.2670   10.5130  -51.7220 O.3      34   G   -0.3548
   1076 C3'        17.4220   10.4960  -54.0580 C.3      34   G    0.2022
   1077 O3'        18.3350   10.3010  -55.1560 O.3      34   G   -0.5246
   1078 C2'        16.6130    9.2880  -53.6100 C.3      34   G    0.0670
   1079 O2'        17.3610    8.0980  -53.6110 O.3      34   G   -0.6139
   1080 C1'        16.3030    9.5850  -52.1480 C.3      34   G    0.0191
   1081 N1         11.8880   11.5520  -53.8480 N.pl3    34   G   -0.4787
   1082 C2         13.0200   11.2140  -54.5400 C.2      34   G    0.7657
   1083 N2         12.9950   11.4000  -55.8540 N.pl3    34   G   -0.9672
   1084 N3         14.1170   10.7140  -54.0110 N.2      34   G   -0.6323
   1085 C4         14.0060   10.5710  -52.6840 C.2      34   G    0.1222
   1086 C5         12.9320   10.8700  -51.8920 C.2      34   G    0.1744
   1087 C6         11.7600   11.4080  -52.4720 C.2      34   G    0.4770
   1088 O6         10.7110   11.7430  -51.8940 O.2      34   G   -0.5597
   1089 N7         13.2040   10.5800  -50.5740 N.2      34   G   -0.5709
   1090 C8         14.4130   10.1190  -50.5960 C.2      34   G    0.1374
   1091 N9         14.9660   10.0850  -51.8440 N.pl3    34   G    0.0492
   1092 OP1        19.9020   14.5860  -51.5410 O.co2    34   G   -0.7760
   1093 OP2        18.1040   14.7740  -53.3730 O.co2    34   G   -0.7760
   1094 H5'        19.1546   12.3670  -53.6412 H        34   G    0.0679
   1095 H5''       19.9616   11.7414  -52.1816 H        34   G    0.0679
   1096 H4'        18.9399    9.8015  -52.7274 H        34   G    0.1174
   1097 H3'        16.7849   11.3657  -54.2184 H        34   G    0.0615
   1098 H2'        15.6997    9.1829  -54.1957 H        34   G    0.0972
   1099 H1'        16.4520    8.6655  -51.5819 H        34   G    0.2006
   1100 H1         11.1049   11.9256  -54.3649 H        34   G    0.3424
   1101 H8         14.9360    9.7916  -49.7096 H        34   G    0.1640
   1102 H21        12.1687   11.7780  -56.2949 H        34   G    0.4364
   1103 H22        13.8023   11.1635  -56.4130 H        34   G    0.4364
   1104 HO2'       16.8380    7.3904  -53.2272 H        34   G    0.4186
   1105 P          17.9300    9.9540  -56.6840 P.3      35   U    1.1662
   1106 C5'        16.5330    7.7560  -57.3090 C.3      35   U    0.0558
   1107 O5'        16.6610    8.9810  -56.5910 O.3      35   U   -0.4989
   1108 C4'        15.1580    7.1490  -57.0370 C.3      35   U    0.1065
   1109 O4'        14.1970    7.5650  -58.0490 O.3      35   U   -0.3548
   1110 C3'        15.0720    5.6220  -57.0270 C.3      35   U    0.2022
   1111 O3'        14.5500    5.1260  -55.7890 O.3      35   U   -0.5246
   1112 C2'        14.1190    5.3490  -58.1960 C.3      35   U    0.0670
   1113 O2'        13.3370    4.1810  -58.0900 O.3      35   U   -0.6139
   1114 C1'        13.2170    6.5580  -58.0850 C.3      35   U    0.0674
   1115 N1         12.2140    6.7680  -59.1900 N.pl3    35   U    0.0418
   1116 C2         12.6230    6.9990  -60.4850 C.2      35   U    0.4687
   1117 O2         13.7940    7.0370  -60.8030 O.2      35   U   -0.5477
   1118 N3         11.6060    7.1820  -61.4040 N.pl3    35   U   -0.3549
   1119 C4         10.2340    7.1620  -61.1740 C.2      35   U    0.5952
   1120 O4          9.4280    7.3430  -62.0920 O.2      35   U   -0.5761
   1121 C5          9.8860    6.9140  -59.7970 C.2      35   U   -0.3635
   1122 C6         10.8630    6.7330  -58.8860 C.2      35   U   -0.1126
   1123 OP1        19.0340    9.1730  -57.2900 O.co2    35   U   -0.7760
   1124 OP2        17.4950   11.2380  -57.2840 O.co2    35   U   -0.7760
   1125 H5'        16.6409    7.9475  -58.3766 H        35   U    0.0679
   1126 H5''       17.3077    7.0615  -56.9841 H        35   U    0.0679
   1127 H4'        14.8116    7.5143  -56.0702 H        35   U    0.1174
   1128 H3'        16.0509    5.1863  -57.2268 H        35   U    0.0615
   1129 H2'        14.6607    5.3618  -59.1418 H        35   U    0.0972
   1130 H1'        12.6959    6.5302  -57.1280 H        35   U    0.1824
   1131 H3         11.8940    7.3505  -62.3573 H        35   U    0.3154
   1132 H5          8.8492    6.8735  -59.4973 H        35   U    0.1811
   1133 H6         10.5761    6.5503  -57.8609 H        35   U    0.2188
   1134 HO2'       13.9032    3.4089  -58.1596 H        35   U    0.4186
   1135 P          15.3510    5.1220  -54.3880 P.3      36   C    1.1662
   1136 C5'        14.4130    5.2090  -51.9720 C.3      36   C    0.0558
   1137 O5'        14.1410    5.1750  -53.3410 O.3      36   C   -0.4989
   1138 C4'        13.2270    5.7250  -51.1920 C.3      36   C    0.1065
   1139 O4'        13.0760    7.1590  -51.3610 O.3      36   C   -0.3548
   1140 C3'        11.8670    5.2030  -51.5980 C.3      36   C    0.2022
   1141 O3'        11.7080    3.8670  -51.1440 O.3      36   C   -0.5246
   1142 C2'        10.9650    6.2440  -50.9150 C.3      36   C    0.0670
   1143 O2'        10.8380    6.1590  -49.5070 O.3      36   C   -0.6139
   1144 C1'        11.7050    7.5240  -51.2930 C.3      36   C    0.0066
   1145 N1         11.2910    8.0280  -52.6050 N.pl3    36   C   -0.0484
   1146 C2          9.9850    8.4910  -52.7930 C.2      36   C    0.7538
   1147 O2          9.1720    8.4990  -51.8610 O.2      36   C   -0.6252
   1148 N3          9.6460    8.9340  -54.0300 N.2      36   C   -0.7584
   1149 C4         10.5250    8.9230  -55.0420 C.2      36   C    0.8185
   1150 N4         10.1230    9.3580  -56.2360 N.pl3    36   C   -0.9530
   1151 C5         11.8530    8.4530  -54.8650 C.2      36   C   -0.5215
   1152 C6         12.1850    8.0210  -53.6440 C.2      36   C    0.0053
   1153 OP1        16.1560    6.3460  -54.2400 O.co2    36   C   -0.7760
   1154 OP2        16.0470    3.8330  -54.2300 O.co2    36   C   -0.7760
   1155 H5'        15.2665    5.8635  -51.7954 H        36   C    0.0679
   1156 H5''       14.6563    4.2030  -51.6301 H        36   C    0.0679
   1157 H4'        13.3831    5.5112  -50.1346 H        36   C    0.1174
   1158 H3'        11.7499    5.2520  -52.6806 H        36   C    0.0615
   1159 H2'         9.9776    6.2375  -51.3765 H        36   C    0.0972
   1160 H1'        11.5543    8.2875  -50.5298 H        36   C    0.2029
   1161 H5         12.5624    8.4448  -55.6793 H        36   C    0.1928
   1162 H6         13.1867    7.6559  -53.4714 H        36   C    0.1958
   1163 H41        10.7645    9.3569  -57.0161 H        36   C    0.4234
   1164 H42         9.1769    9.6887  -56.3607 H        36   C    0.4234
   1165 HO2'        9.9084    6.1157  -49.2711 H        36   C    0.4186
   1166 P          10.8900    2.7630  -51.9790 P.3      37   C    1.1662
   1167 C5'         8.8190    3.1970  -50.4660 C.3      37   C    0.0558
   1168 O5'         9.3880    3.2060  -51.7590 O.3      37   C   -0.4989
   1169 C4'         7.4700    3.8290  -50.6270 C.3      37   C    0.1065
   1170 O4'         7.7880    5.1020  -51.1990 O.3      37   C   -0.3548
   1171 C3'         6.5680    3.2280  -51.6890 C.3      37   C    0.2022
   1172 O3'         5.7850    2.1410  -51.2330 O.3      37   C   -0.5246
   1173 C2'         5.7160    4.4150  -52.0800 C.3      37   C    0.0670
   1174 O2'         4.6360    4.6130  -51.2130 O.3      37   C   -0.6139
   1175 C1'         6.7110    5.5640  -51.9760 C.3      37   C    0.0066
   1176 N1          7.1660    5.9670  -53.3140 N.pl3    37   C   -0.0484
   1177 C2          6.2370    6.6150  -54.1350 C.2      37   C    0.7538
   1178 O2          5.0990    6.8420  -53.7070 O.2      37   C   -0.6252
   1179 N3          6.6020    6.9670  -55.3850 N.2      37   C   -0.7584
   1180 C4          7.8370    6.7090  -55.8000 C.2      37   C    0.8185
   1181 N4          8.1490    7.0950  -57.0330 N.pl3    37   C   -0.9530
   1182 C5          8.8030    6.0480  -54.9810 C.2      37   C   -0.5215
   1183 C6          8.4300    5.6920  -53.7500 C.2      37   C    0.0053
   1184 OP1        11.0740    1.5170  -51.2060 O.co2    37   C   -0.7760
   1185 OP2        11.1710    2.8420  -53.4320 O.co2    37   C   -0.7760
   1186 H5'         8.7211    2.1755  -50.0985 H        37   C    0.0679
   1187 H5''        9.4306    3.7855  -49.7821 H        37   C    0.0679
   1188 H4'         6.9557    3.9325  -49.6715 H        37   C    0.1174
   1189 H3'         7.1685    2.9128  -52.5423 H        37   C    0.0615
   1190 H2'         5.3646    4.3086  -53.1063 H        37   C    0.0972
   1191 H1'         6.2394    6.4121  -51.4795 H        37   C    0.2029
   1192 H5          9.7991    5.8437  -55.3448 H        37   C    0.1928
   1193 H6          9.1280    5.1865  -53.0990 H        37   C    0.1958
   1194 H41         9.0751    6.9221  -57.3972 H        37   C    0.4234
   1195 H42         7.4600    7.5612  -57.6058 H        37   C    0.4234
   1196 HO2'        4.0423    5.2692  -51.5853 H        37   C    0.4186
   1197 P           5.3380    1.0190  -52.2830 P.3      38   C    1.1662
   1198 C5'         3.0390    2.1720  -52.3980 C.3      38   C    0.0558
   1199 O5'         4.1680    1.7150  -53.1000 O.3      38   C   -0.4989
   1200 C4'         2.0950    2.9410  -53.2970 C.3      38   C    0.1065
   1201 O4'         2.6280    4.2240  -53.6940 O.3      38   C   -0.3548
   1202 C3'         1.7890    2.2560  -54.6080 C.3      38   C    0.2022
   1203 O3'         0.8480    1.2710  -54.3450 O.3      38   C   -0.5246
   1204 C2'         1.2380    3.4310  -55.4000 C.3      38   C    0.0670
   1205 O2'        -0.0240    3.9040  -54.9610 O.3      38   C   -0.6139
   1206 C1'         2.2870    4.4610  -55.0550 C.3      38   C    0.0066
   1207 N1          3.5220    4.4490  -55.9010 N.pl3    38   C   -0.0484
   1208 C2          3.4720    4.9480  -57.1950 C.2      38   C    0.7538
   1209 O2          2.4020    5.3610  -57.6290 O.2      38   C   -0.6252
   1210 N3          4.5960    4.9600  -57.9470 N.2      38   C   -0.7584
   1211 C4          5.7420    4.5230  -57.4460 C.2      38   C    0.8185
   1212 N4          6.8290    4.5660  -58.2160 N.pl3    38   C   -0.9530
   1213 C5          5.8180    4.0200  -56.1270 C.2      38   C   -0.5215
   1214 C6          4.7010    3.9960  -55.4040 C.2      38   C    0.0053
   1215 OP1         4.7110   -0.0010  -51.4240 O.co2    38   C   -0.7760
   1216 OP2         6.4140    0.6790  -53.2560 O.co2    38   C   -0.7760
   1217 H5'         2.5105    1.3142  -51.9822 H        38   C    0.0679
   1218 H5''        3.3634    2.8200  -51.5838 H        38   C    0.0679
   1219 H4'         1.1592    3.1031  -52.7620 H        38   C    0.1174
   1220 H3'         2.6872    1.8442  -55.0681 H        38   C    0.0615
   1221 H2'         1.2300    3.2179  -56.4689 H        38   C    0.0972
   1222 H1'         1.8327    5.4492  -55.1268 H        38   C    0.2029
   1223 H5          6.7533    3.6663  -55.7189 H        38   C    0.1928
   1224 H6          4.7334    3.6066  -54.3972 H        38   C    0.1958
   1225 H41         7.7148    4.2384  -57.8580 H        38   C    0.4234
   1226 H42         6.7670    4.9262  -59.1575 H        38   C    0.4234
   1227 HO2'       -0.5931    4.0506  -55.7201 H        38   C    0.4186
   1228 P           0.6170    0.0560  -55.3350 P.3      39   U    1.1662
   1229 C5'        -1.1060    1.0350  -56.9250 C.3      39   U    0.0558
   1230 O5'         0.2310    0.6880  -56.7300 O.3      39   U   -0.4989
   1231 C4'        -1.2040    1.6040  -58.3060 C.3      39   U    0.1065
   1232 O4'        -0.0960    2.5210  -58.4920 O.3      39   U   -0.3548
   1233 C3'        -1.0300    0.5780  -59.4010 C.3      39   U    0.2022
   1234 O3'        -2.2470   -0.1270  -59.6110 O.3      39   U   -0.5246
   1235 C2'        -0.6430    1.5040  -60.5470 C.3      39   U    0.0670
   1236 O2'        -1.7810    2.1160  -61.1060 O.3      39   U   -0.6139
   1237 C1'         0.2120    2.5710  -59.8640 C.3      39   U    0.0674
   1238 N1          1.6810    2.4540  -60.0270 N.pl3    39   U    0.0418
   1239 C2          2.2190    2.7450  -61.2480 C.2      39   U    0.4687
   1240 O2          1.5280    3.0650  -62.1970 O.2      39   U   -0.5477
   1241 N3          3.5830    2.6500  -61.3520 N.pl3    39   U   -0.3549
   1242 C4          4.4520    2.3180  -60.3410 C.2      39   U    0.5952
   1243 O4          5.6650    2.2690  -60.5590 O.2      39   U   -0.5761
   1244 C5          3.8080    2.0340  -59.0900 C.2      39   U   -0.3635
   1245 C6          2.4790    2.1150  -58.9770 C.2      39   U   -0.1126
   1246 OP1        -0.5980   -0.6210  -54.7940 O.co2    39   U   -0.7760
   1247 OP2         1.9210   -0.5980  -55.6050 O.co2    39   U   -0.7760
   1248 H5'        -1.4123    1.7788  -56.1895 H        39   U    0.0679
   1249 H5''       -1.7358    0.1492  -56.8424 H        39   U    0.0679
   1250 H4'        -2.1512    2.1290  -58.4299 H        39   U    0.1174
   1251 H3'        -0.2177   -0.1094  -59.1648 H        39   U    0.0615
   1252 H2'        -0.0716    0.9705  -61.3065 H        39   U    0.0972
   1253 H1'        -0.0945    3.5453  -60.2446 H        39   U    0.1824
   1254 H3          3.9870    2.8423  -62.2575 H        39   U    0.3154
   1255 H5          4.4023    1.7526  -58.2333 H        39   U    0.1811
   1256 H6          2.0226    1.9046  -58.0211 H        39   U    0.2188
   1257 HO2'       -2.3232    1.4513  -61.5371 H        39   U    0.4186
   1258 P          -2.2600   -1.6860  -59.9930 P.3      40   U    1.1662
   1259 C5'        -4.3960   -2.1300  -58.6070 C.3      40   U    0.0558
   1260 O5'        -3.8120   -2.0470  -59.8920 O.3      40   U   -0.4989
   1261 C4'        -5.8610   -1.7740  -58.6690 C.3      40   U    0.1065
   1262 O4'        -5.9620   -0.3390  -58.8200 O.3      40   U   -0.3548
   1263 C3'        -6.6390   -2.3700  -59.8370 C.3      40   U    0.2022
   1264 O3'        -7.9060   -2.8760  -59.4210 O.3      40   U   -0.5246
   1265 C2'        -6.8560   -1.2250  -60.8080 C.3      40   U    0.0670
   1266 O2'        -8.0680   -1.3770  -61.5320 O.3      40   U   -0.6139
   1267 C1'        -6.8690   -0.0270  -59.8550 C.3      40   U    0.0674
   1268 N1         -6.4540    1.2420  -60.5140 N.pl3    40   U    0.0418
   1269 C2         -7.4180    2.1760  -60.8070 C.2      40   U    0.4687
   1270 O2         -8.5890    2.0420  -60.5320 O.2      40   U   -0.5477
   1271 N3         -6.9540    3.2980  -61.4340 N.pl3    40   U   -0.3549
   1272 C4         -5.6450    3.5670  -61.7850 C.2      40   U    0.5952
   1273 O4         -5.3930    4.6300  -62.3450 O.2      40   U   -0.5761
   1274 C5         -4.6870    2.5350  -61.4650 C.2      40   U   -0.3635
   1275 C6         -5.1240    1.4350  -60.8480 C.2      40   U   -0.1126
   1276 OP1        -1.5670   -2.3840  -58.8900 O.co2    40   U   -0.7760
   1277 OP2        -1.8040   -1.8450  -61.3950 O.co2    40   U   -0.7760
   1278 H5'        -4.2897   -3.1471  -58.2297 H        40   U    0.0679
   1279 H5''       -3.8858   -1.4408  -57.9341 H        40   U    0.0679
   1280 H4'        -6.3392   -2.0686  -57.7349 H        40   U    0.1174
   1281 H3'        -6.0569   -3.1598  -60.3119 H        40   U    0.0615
   1282 H2'        -6.0136   -1.1498  -61.4957 H        40   U    0.0972
   1283 H1'        -7.8685    0.0922  -59.4368 H        40   U    0.1824
   1284 H3         -7.6388    4.0037  -61.6647 H        40   U    0.3154
   1285 H5         -3.6435    2.6502  -61.7184 H        40   U    0.1811
   1286 H6         -4.4106    0.6634  -60.5989 H        40   U    0.2188
   1287 HO2'       -8.1753   -0.6385  -62.1359 H        40   U    0.4186
   1288 P          -8.2240   -4.4100  -59.7020 P.3      41   U    1.1662
   1289 C5'        -8.7010   -4.6340  -57.1520 C.3      41   U    0.0558
   1290 O5'        -7.8840   -5.0130  -58.2590 O.3      41   U   -0.4989
   1291 C4'        -8.0780   -5.0760  -55.8440 C.3      41   U    0.1065
   1292 O4'        -7.7800   -6.4840  -55.9440 O.3      41   U   -0.3548
   1293 C3'        -6.7360   -4.4560  -55.4800 C.3      41   U    0.2022
   1294 O3'        -6.5180   -4.5460  -54.1190 O.3      41   U   -0.5246
   1295 C2'        -5.7120   -5.3870  -56.0910 C.3      41   U    0.0670
   1296 O2'        -4.4240   -5.2970  -55.5020 O.3      41   U   -0.6139
   1297 C1'        -6.4010   -6.6900  -55.7170 C.3      41   U    0.0674
   1298 N1         -5.8600   -7.8170  -56.5120 N.pl3    41   U    0.0418
   1299 C2         -5.1110   -8.7610  -55.8420 C.2      41   U    0.4687
   1300 O2         -4.9070   -8.7200  -54.6330 O.2      41   U   -0.5477
   1301 N3         -4.6230   -9.7660  -56.6520 N.pl3    41   U   -0.3549
   1302 C4         -4.8090   -9.9060  -58.0160 C.2      41   U    0.5952
   1303 O4         -4.3070  -10.8600  -58.5810 O.2      41   U   -0.5761
   1304 C5         -5.6000   -8.8810  -58.6450 C.2      41   U   -0.3635
   1305 C6         -6.0800   -7.8900  -57.8800 C.2      41   U   -0.1126
   1306 OP1        -7.2580   -4.8660  -60.7300 O.co2    41   U   -0.7760
   1307 OP2        -9.6670   -4.5980  -59.9940 O.co2    41   U   -0.7760
   1308 H5'        -9.6809   -5.0999  -57.2558 H        41   U    0.0679
   1309 H5''       -8.8175   -3.5503  -57.1461 H        41   U    0.0679
   1310 H4'        -8.7857   -4.9119  -55.0314 H        41   U    0.1174
   1311 H3'        -6.6385   -3.4347  -55.8481 H        41   U    0.0615
   1312 H2'        -5.6613   -5.2632  -57.1728 H        41   U    0.0972
   1313 H1'        -6.2387   -6.8892  -54.6577 H        41   U    0.1824
   1314 H3         -4.0686  -10.4784  -56.1990 H        41   U    0.3154
   1315 H5         -5.8016   -8.9095  -59.7056 H        41   U    0.1811
   1316 H6         -6.6646   -7.1131  -58.3501 H        41   U    0.2188
   1317 HO2'       -4.0135   -4.4667  -55.7544 H        41   U    0.4186
   1318 P          -6.5400   -3.2580  -53.2190 P.3      42   G    1.1662
   1319 C5'        -4.4650   -1.6450  -53.6840 C.3      42   G    0.0558
   1320 O5'        -5.6910   -2.2280  -54.1220 O.3      42   G   -0.4989
   1321 C4'        -4.2020   -0.2820  -54.3080 C.3      42   G    0.1065
   1322 O4'        -4.7850   -0.1780  -55.6320 O.3      42   G   -0.3548
   1323 C3'        -4.8360    0.9390  -53.6590 C.3      42   G    0.2022
   1324 O3'        -4.2410    1.3000  -52.4480 O.3      42   G   -0.5246
   1325 C2'        -4.5900    2.0020  -54.7320 C.3      42   G    0.0670
   1326 O2'        -3.2220    2.3920  -54.8540 O.3      42   G   -0.6139
   1327 C1'        -5.0850    1.1940  -55.9270 C.3      42   G    0.0191
   1328 N1         -8.9740    3.7590  -58.0670 N.pl3    42   G   -0.4787
   1329 C2         -7.6490    4.1350  -57.9730 C.2      42   G    0.7657
   1330 N2         -7.3100    5.3160  -58.5220 N.pl3    42   G   -0.9672
   1331 N3         -6.7150    3.3930  -57.3880 N.2      42   G   -0.6323
   1332 C4         -7.2190    2.2350  -56.9080 C.2      42   G    0.1222
   1333 C5         -8.5190    1.7960  -56.9570 C.2      42   G    0.1744
   1334 C6         -9.5030    2.5800  -57.5660 C.2      42   G    0.4770
   1335 O6        -10.7020    2.3340  -57.6800 O.2      42   G   -0.5597
   1336 N7         -8.6540    0.5750  -56.3430 N.2      42   G   -0.5709
   1337 C8         -7.4530    0.2960  -55.9380 C.2      42   G    0.1374
   1338 N9         -6.5210    1.2600  -56.2340 N.pl3    42   G    0.0492
   1339 OP1        -5.8300   -3.5770  -51.9410 O.co2    42   G   -0.7760
   1340 OP2        -7.9780   -2.8690  -53.2320 O.co2    42   G   -0.7760
   1341 H5'        -3.6468   -2.3137  -53.9514 H        42   G    0.0679
   1342 H5''       -4.4929   -1.5374  -52.5997 H        42   G    0.0679
   1343 H4'        -3.1256   -0.1266  -54.3809 H        42   G    0.1174
   1344 H3'        -5.9058    0.7812  -53.5219 H        42   G    0.0615
   1345 H2'        -5.2253    2.8719  -54.5653 H        42   G    0.0972
   1346 H1'        -4.5227    1.4942  -56.8112 H        42   G    0.2006
   1347 H1         -9.6061    4.3914  -58.5367 H        42   G    0.3424
   1348 H8         -7.2078   -0.6157  -55.4135 H        42   G    0.1640
   1349 H21        -6.3523    5.6344  -58.4837 H        42   G    0.4364
   1350 H22        -8.0133    5.8840  -58.9724 H        42   G    0.4364
   1351 HO2'       -2.8815    2.6384  -53.9909 H        42   G    0.4186
   1352 P          -5.2080    1.6860  -51.2530 P.3      43   A    1.1662
   1353 C5'        -3.1520    3.0070  -50.1370 C.3      43   A    0.0558
   1354 O5'        -4.4820    3.0080  -50.7250 O.3      43   A   -0.4989
   1355 C4'        -3.2260    3.6010  -48.7540 C.3      43   A    0.1065
   1356 O4'        -4.6340    3.7510  -48.4760 O.3      43   A   -0.3548
   1357 C3'        -2.6880    2.7430  -47.6170 C.3      43   A    0.2022
   1358 O3'        -1.5500    3.3500  -46.9690 O.3      43   A   -0.5246
   1359 C2'        -3.8770    2.5800  -46.6640 C.3      43   A    0.0670
   1360 O2'        -3.5940    2.7680  -45.2910 O.3      43   A   -0.6139
   1361 C1'        -4.7730    3.7180  -47.0880 C.3      43   A    0.0394
   1362 N1         -9.3470    5.9650  -46.5680 N.2      43   A   -0.7615
   1363 C2         -8.1320    6.4800  -46.8260 C.2      43   A    0.5875
   1364 N3         -6.9680    5.8380  -46.9530 N.2      43   A   -0.6997
   1365 C4         -7.1230    4.5120  -46.7770 C.2      43   A    0.3053
   1366 C5         -8.3040    3.8490  -46.5160 C.2      43   A    0.0515
   1367 C6         -9.4690    4.6260  -46.4160 C.2      43   A    0.7009
   1368 N6        -10.6630    4.0920  -46.1520 N.pl3    43   A   -0.9019
   1369 N7         -8.0970    2.4980  -46.3970 N.2      43   A   -0.6073
   1370 C8         -6.8130    2.3610  -46.5800 C.2      43   A    0.2006
   1371 N9         -6.1700    3.5350  -46.8140 N.pl3    43   A   -0.0251
   1372 OP1        -5.1210    0.6130  -50.2460 O.co2    43   A   -0.7760
   1373 OP2        -6.5460    2.0410  -51.7540 O.co2    43   A   -0.7760
   1374 H5'        -2.4792    3.6021  -50.7545 H        43   A    0.0679
   1375 H5''       -2.7813    1.9838  -50.0752 H        43   A    0.0679
   1376 H4'        -2.7404    4.5768  -48.7435 H        43   A    0.1174
   1377 H3'        -2.4020    1.7661  -48.0069 H        43   A    0.0615
   1378 H2'        -4.3706    1.6218  -46.8265 H        43   A    0.0972
   1379 H1'        -4.4237    4.6542  -46.6526 H        43   A    0.2007
   1380 H2         -8.0924    7.5526  -46.9462 H        43   A    0.0473
   1381 H8         -6.3092    1.4062  -46.5486 H        43   A    0.1553
   1382 H61       -11.3463    4.7037  -45.7289 H        43   A    0.4115
   1383 H62       -10.8724    3.1270  -46.3641 H        43   A    0.4115
   1384 HO2'       -3.0234    2.0607  -44.9816 H        43   A    0.4186
   1385 P          -0.0920    3.0420  -47.5330 P.3      44   A    1.1662
   1386 C5'         0.0450    5.2840  -48.9060 C.3      44   A    0.0558
   1387 O5'        -0.1790    3.9080  -48.8770 O.3      44   A   -0.4989
   1388 C4'         1.0830    5.6790  -49.9310 C.3      44   A    0.1065
   1389 O4'         0.7060    5.2300  -51.2670 O.3      44   A   -0.3548
   1390 C3'         1.2240    7.1850  -50.0510 C.3      44   A    0.2022
   1391 O3'         2.1160    7.6930  -49.0860 O.3      44   A   -0.5246
   1392 C2'         1.7770    7.3000  -51.4560 C.3      44   A    0.0670
   1393 O2'         3.1620    6.9970  -51.4770 O.3      44   A   -0.6139
   1394 C1'         0.9710    6.2450  -52.2190 C.3      44   A    0.0394
   1395 N1         -1.3270    8.5110  -56.2980 N.2      44   A   -0.7615
   1396 C2         -0.0230    8.3420  -56.0100 C.2      44   A    0.5875
   1397 N3          0.4920    7.7460  -54.9240 N.2      44   A   -0.6997
   1398 C4         -0.4650    7.2910  -54.0720 C.2      44   A    0.3053
   1399 C5         -1.8320    7.4030  -54.2540 C.2      44   A    0.0515
   1400 C6         -2.2710    8.0470  -55.4280 C.2      44   A    0.7009
   1401 N6         -3.5690    8.2270  -55.7140 N.pl3    44   A   -0.9019
   1402 N7         -2.5110    6.8540  -53.2020 N.2      44   A   -0.6073
   1403 C8         -1.5610    6.4150  -52.4140 C.2      44   A    0.2006
   1404 N9         -0.2940    6.6390  -52.8640 N.pl3    44   A   -0.0251
   1405 OP1         0.0030    1.6550  -48.0350 O.co2    44   A   -0.7760
   1406 OP2         0.9380    3.4500  -46.5610 O.co2    44   A   -0.7760
   1407 H5'        -0.8923    5.7858  -49.1463 H        44   A    0.0679
   1408 H5''        0.3785    5.6094  -47.9206 H        44   A    0.0679
   1409 H4'         2.0452    5.2445  -49.6597 H        44   A    0.1174
   1410 H3'         0.2521    7.6727  -49.9756 H        44   A    0.0615
   1411 H2'         1.5934    8.2945  -51.8627 H        44   A    0.0972
   1412 H1'         1.6187    5.8213  -52.9865 H        44   A    0.2007
   1413 H2          0.6840    8.7272  -56.7299 H        44   A    0.0473
   1414 H8         -1.7660    5.9140  -51.4794 H        44   A    0.1553
   1415 H61        -3.8920    8.9194  -56.3746 H        44   A    0.4115
   1416 H62        -4.2520    7.6459  -55.2494 H        44   A    0.4115
   1417 HO2'        3.5338    7.2585  -52.3226 H        44   A    0.4186
   1418 P           1.5570    8.6360  -47.9190 P.3      45   C    1.1662
   1419 C5'         0.0610   10.6410  -48.6110 C.3      45   C    0.0558
   1420 O5'         1.2650    9.9520  -48.7430 O.3      45   C   -0.4989
   1421 C4'        -0.3800   11.1070  -49.9770 C.3      45   C    0.1065
   1422 O4'        -0.6860    9.9790  -50.8240 O.3      45   C   -0.3548
   1423 C3'        -1.6880   11.8540  -49.9070 C.3      45   C    0.2022
   1424 O3'        -1.4940   13.1760  -49.3520 O.3      45   C   -0.5246
   1425 C2'        -2.2250   11.7060  -51.3360 C.3      45   C    0.0670
   1426 O2'        -1.6880   12.5580  -52.3380 O.3      45   C   -0.6139
   1427 C1'        -1.8570   10.2420  -51.5890 C.3      45   C    0.0066
   1428 N1         -2.9970    9.3060  -51.2470 N.pl3    45   C   -0.0484
   1429 C2         -4.1120    9.2810  -52.0800 C.2      45   C    0.7538
   1430 O2         -4.1310   10.0100  -53.0910 O.2      45   C   -0.6252
   1431 N3         -5.1430    8.4580  -51.7810 N.2      45   C   -0.7584
   1432 C4         -5.0980    7.6850  -50.7160 C.2      45   C    0.8185
   1433 N4         -6.1390    6.9060  -50.4680 N.pl3    45   C   -0.9530
   1434 C5         -3.9860    7.6830  -49.8530 C.2      45   C   -0.5215
   1435 C6         -2.9740    8.5040  -50.1500 C.2      45   C    0.0053
   1436 OP1         2.6940    8.9800  -47.0320 O.co2    45   C   -0.7760
   1437 OP2         0.2640    8.1030  -47.4080 O.co2    45   C   -0.7760
   1438 H5'        -0.6952    9.9805  -48.1868 H        45   C    0.0679
   1439 H5''        0.2021   11.5025  -47.9584 H        45   C    0.0679
   1440 H4'         0.3897   11.7288  -50.4341 H        45   C    0.1174
   1441 H3'        -2.3527   11.3046  -49.2403 H        45   C    0.0615
   1442 H2'        -3.3103   11.8062  -51.3237 H        45   C    0.0972
   1443 H1'        -1.6153   10.1227  -52.6452 H        45   C    0.2029
   1444 H5         -3.9518    7.0425  -48.9841 H        45   C    0.1928
   1445 H6         -2.1126    8.5309  -49.4991 H        45   C    0.1958
   1446 H41        -6.1371    6.3034  -49.6574 H        45   C    0.4234
   1447 H42        -6.9352    6.9141  -51.0893 H        45   C    0.4234
   1448 HO2'       -0.7796   12.3062  -52.5196 H        45   C    0.4186
   1449 P          -2.5980   13.6440  -48.2850 P.3      46   C    1.1662
   1450 C5'        -3.3630   14.8450  -50.4360 C.3      46   C    0.0558
   1451 O5'        -3.2810   14.8710  -49.0250 O.3      46   C   -0.4989
   1452 C4'        -4.7670   14.9850  -50.9670 C.3      46   C    0.1065
   1453 O4'        -5.1410   13.7740  -51.6540 O.3      46   C   -0.3548
   1454 C3'        -5.8970   15.2040  -49.9890 C.3      46   C    0.2022
   1455 O3'        -5.9250   16.5600  -49.6750 O.3      46   C   -0.5246
   1456 C2'        -7.0830   14.8140  -50.8610 C.3      46   C    0.0670
   1457 O2'        -7.4820   15.8250  -51.7580 O.3      46   C   -0.6139
   1458 C1'        -6.5430   13.5890  -51.5920 C.3      46   C    0.0066
   1459 N1         -6.8970   12.3540  -50.8340 N.pl3    46   C   -0.0484
   1460 C2         -8.1860   11.8410  -50.9530 C.2      46   C    0.7538
   1461 O2         -9.0010   12.3750  -51.6920 O.2      46   C   -0.6252
   1462 N3         -8.5170   10.7460  -50.2460 N.2      46   C   -0.7584
   1463 C4         -7.6280   10.1580  -49.4370 C.2      46   C    0.8185
   1464 N4         -8.0380    9.0670  -48.7780 N.pl3    46   C   -0.9530
   1465 C5         -6.3020   10.6720  -49.2800 C.2      46   C   -0.5215
   1466 C6         -5.9860   11.7640  -49.9920 C.2      46   C    0.0053
   1467 OP1        -1.9040   14.0000  -47.0450 O.co2    46   C   -0.7760
   1468 OP2        -3.7250   12.6960  -48.2320 O.co2    46   C   -0.7760
   1469 H5'        -2.9564   13.8963  -50.7862 H        46   C    0.0679
   1470 H5''       -2.7547   15.6558  -50.8369 H        46   C    0.0679
   1471 H4'        -4.7780   15.8024  -51.6880 H        46   C    0.1174
   1472 H3'        -5.8078   14.5745  -49.1036 H        46   C    0.0615
   1473 H2'        -7.9249   14.5263  -50.2313 H        46   C    0.0972
   1474 H1'        -6.9584   13.5414  -52.5986 H        46   C    0.2029
   1475 H5         -5.5886   10.2025  -48.6189 H        46   C    0.1928
   1476 H6         -4.9966   12.1874  -49.9016 H        46   C    0.1958
   1477 H41        -7.4057    8.5866  -48.1539 H        46   C    0.4234
   1478 H42        -8.9796    8.7244  -48.9050 H        46   C    0.4234
   1479 HO2'       -8.0206   16.4705  -51.2944 H        46   C    0.4186
   1480 P          -7.0090   17.1560  -48.6860 P.3      47   U    1.1662
   1481 C5'        -9.4920   16.9990  -48.4440 C.3      47   U    0.0558
   1482 O5'        -8.3860   16.5940  -49.1880 O.3      47   U   -0.4989
   1483 C4'       -10.7280   16.7610  -49.2630 C.3      47   U    0.1065
   1484 O4'       -10.5340   15.5940  -50.0880 O.3      47   U   -0.3548
   1485 C3'       -11.9570   16.4840  -48.4300 C.3      47   U    0.2022
   1486 O3'       -12.6810   17.6770  -48.3110 O.3      47   U   -0.5246
   1487 C2'       -12.6820   15.4450  -49.2680 C.3      47   U    0.0670
   1488 O2'       -13.4100   15.9920  -50.3570 O.3      47   U   -0.6139
   1489 C1'       -11.5150   14.6190  -49.7870 C.3      47   U    0.0674
   1490 N1        -10.9660   13.5630  -48.8570 N.pl3    47   U    0.0418
   1491 C2        -11.7990   12.6000  -48.3400 C.2      47   U    0.4687
   1492 O2        -12.9860   12.5410  -48.5690 O.2      47   U   -0.5477
   1493 N3        -11.1910   11.6890  -47.5140 N.pl3    47   U   -0.3549
   1494 C4         -9.8550   11.6280  -47.1590 C.2      47   U    0.5952
   1495 O4         -9.4510   10.7430  -46.4040 O.2      47   U   -0.5761
   1496 C5         -9.0410   12.6550  -47.7370 C.2      47   U   -0.3635
   1497 C6         -9.6180   13.5510  -48.5430 C.2      47   U   -0.1126
   1498 OP1        -7.1010   18.5940  -48.9740 O.co2    47   U   -0.7760
   1499 OP2        -6.7250   16.6670  -47.3110 O.co2    47   U   -0.7760
   1500 H5'        -9.4070   18.0593  -48.2059 H        47   U    0.0679
   1501 H5''       -9.5458   16.4196  -47.5223 H        47   U    0.0679
   1502 H4'       -10.9112   17.6266  -49.8997 H        47   U    0.1174
   1503 H3'       -11.6892   16.0853  -47.4515 H        47   U    0.0615
   1504 H2'       -13.3328   14.8352  -48.6413 H        47   U    0.0972
   1505 H1'       -11.8192   14.1368  -50.7160 H        47   U    0.1824
   1506 H3        -11.7896   10.9784  -47.1180 H        47   U    0.3154
   1507 H5         -7.9830   12.7042  -47.5258 H        47   U    0.1811
   1508 H6         -8.9916   14.3158  -48.9779 H        47   U    0.2188
   1509 HO2'      -14.1446   16.5118  -50.0226 H        47   U    0.4186
   1510 P         -12.6020   18.5670  -46.9970 P.3      48   G    1.1662
   1511 C5'       -14.9260   17.5650  -46.2850 C.3      48   G    0.0558
   1512 O5'       -13.5150   17.7060  -45.9930 O.3      48   G   -0.4989
   1513 C4'       -15.5610   16.3670  -45.5980 C.3      48   G    0.1065
   1514 O4'       -14.8980   15.1630  -46.0700 O.3      48   G   -0.3548
   1515 C3'       -15.4210   16.2730  -44.0830 C.3      48   G    0.2022
   1516 O3'       -16.4250   16.9850  -43.3800 O.3      48   G   -0.5246
   1517 C2'       -15.6280   14.7740  -43.8900 C.3      48   G    0.0670
   1518 O2'       -16.9990   14.4230  -43.9760 O.3      48   G   -0.6139
   1519 C1'       -14.8270   14.1700  -45.0480 C.3      48   G    0.0191
   1520 N1        -11.6400   10.3650  -43.7300 N.pl3    48   G   -0.4787
   1521 C2        -12.9940   10.3450  -43.9930 C.2      48   G    0.7657
   1522 N2        -13.6210    9.1630  -43.8930 N.pl3    48   G   -0.9672
   1523 N3        -13.7070   11.4170  -44.3270 N.2      48   G   -0.6323
   1524 C4        -12.9550   12.5410  -44.3900 C.2      48   G    0.1222
   1525 C5        -11.5950   12.6590  -44.1530 C.2      48   G    0.1744
   1526 C6        -10.8390   11.5060  -43.7900 C.2      48   G    0.4770
   1527 O6         -9.6220   11.3950  -43.5350 O.2      48   G   -0.5597
   1528 N7        -11.2110   13.9760  -44.3280 N.2      48   G   -0.5709
   1529 C8        -12.3170   14.6070  -44.6550 C.2      48   G    0.1374
   1530 N9        -13.4310   13.7970  -44.7180 N.pl3    48   G    0.0492
   1531 OP1       -13.3370   19.7910  -47.3560 O.co2    48   G   -0.7760
   1532 OP2       -11.2060   18.6810  -46.5180 O.co2    48   G   -0.7760
   1533 H5'       -15.4403   18.4672  -45.9540 H        48   G    0.0679
   1534 H5''      -15.0541   17.4618  -47.3625 H        48   G    0.0679
   1535 H4'       -16.6173   16.3210  -45.8631 H        48   G    0.1174
   1536 H3'       -14.4250   16.5769  -43.7608 H        48   G    0.0615
   1537 H2'       -15.2135   14.4537  -42.9341 H        48   G    0.0972
   1538 H1'       -15.3475   13.2786  -45.3980 H        48   G    0.2006
   1539 H1        -11.1977    9.4932  -43.4764 H        48   G    0.3424
   1540 H8        -12.3501   15.6675  -44.8567 H        48   G    0.1640
   1541 H21       -13.1011    8.3356  -43.6375 H        48   G    0.4364
   1542 H22       -14.6128    9.1006  -44.0732 H        48   G    0.4364
   1543 HO2'      -17.4765   14.8134  -43.2404 H        48   G    0.4186
   1544 P         -16.3030   18.4780  -42.7960 P.3      49   A    1.1662
   1545 C5'       -14.3010   19.8340  -41.7270 C.3      49   A    0.0558
   1546 O5'       -14.7620   18.9150  -42.7340 O.3      49   A   -0.4989
   1547 C4'       -12.7820   19.9680  -41.6610 C.3      49   A    0.1065
   1548 O4'       -12.1850   18.8860  -40.8920 O.3      49   A   -0.3548
   1549 C3'       -12.0250   19.8880  -42.9880 C.3      49   A    0.2022
   1550 O3'       -10.6900   20.4410  -42.9200 O.3      49   A   -0.5246
   1551 C2'       -11.9680   18.3800  -43.1960 C.3      49   A    0.0670
   1552 O2'       -11.0110   17.9790  -44.1470 O.3      49   A   -0.6139
   1553 C1'       -11.6090   17.9260  -41.7790 C.3      49   A    0.0394
   1554 N1        -10.3760   12.9950  -40.8790 N.2      49   A   -0.7615
   1555 C2         -9.6300   14.0660  -41.1960 C.2      49   A    0.5875
   1556 N3        -10.0230   15.3240  -41.4210 N.2      49   A   -0.6997
   1557 C4        -11.3570   15.4450  -41.2860 C.2      49   A    0.3053
   1558 C5        -12.2550   14.4420  -40.9620 C.2      49   A    0.0515
   1559 C6        -11.7100   13.1580  -40.7550 C.2      49   A    0.7009
   1560 N6        -12.4480   12.1010  -40.4380 N.pl3    49   A   -0.9019
   1561 N7        -13.5460   14.9280  -40.9090 N.2      49   A   -0.6073
   1562 C8        -13.4030   16.1980  -41.1980 C.2      49   A    0.2006
   1563 N9        -12.1080   16.5850  -41.4380 N.pl3    49   A   -0.0251
   1564 OP1       -16.7850   18.3950  -41.3970 O.co2    49   A   -0.7760
   1565 OP2       -17.0010   19.3360  -43.7860 O.co2    49   A   -0.7760
   1566 H5'       -14.6573   19.4872  -40.7570 H        49   A    0.0679
   1567 H5''      -14.7303   20.8158  -41.9266 H        49   A    0.0679
   1568 H4'       -12.5373   20.9139  -41.1778 H        49   A    0.1174
   1569 H3'       -12.5968   20.3636  -43.7848 H        49   A    0.0615
   1570 H2'       -12.9524   18.0023  -43.4725 H        49   A    0.0972
   1571 H1'       -10.5251   17.9417  -41.6646 H        49   A    0.2007
   1572 H2         -8.5684   13.8866  -41.2807 H        49   A    0.0473
   1573 H8        -14.2358   16.8841  -41.2436 H        49   A    0.1553
   1574 HO2'      -11.2574   18.3162  -45.0114 H        49   A    0.4186
   1575 H61       -12.0282   11.2559  -40.7979 H        49   A    0.4115
   1576 H62       -13.3087   12.1369  -39.9108 H        49   A    0.4115
   1577 P         -10.4140   21.9490  -42.4510 P.3      50   A    1.1662
   1578 C5'        -9.3900   22.1430  -40.0110 C.3      50   A    0.0558
   1579 O5'       -10.4640   21.8140  -40.8620 O.3      50   A   -0.4989
   1580 C4'        -9.8550   22.1560  -38.5550 C.3      50   A    0.1065
   1581 O4'        -9.8950   23.5070  -38.0130 O.3      50   A   -0.3548
   1582 C3'       -11.2560   21.6050  -38.2620 C.3      50   A    0.2022
   1583 O3'       -11.2340   20.8960  -37.0240 O.3      50   A   -0.5246
   1584 C2'       -12.1490   22.8510  -38.2100 C.3      50   A    0.0670
   1585 O2'       -13.3380   22.6330  -37.4640 O.3      50   A   -0.6139
   1586 C1'       -11.1900   23.8320  -37.5340 C.3      50   A    0.0394
   1587 N1        -10.7460   27.8700  -40.8200 N.2      50   A   -0.7615
   1588 C2        -10.4920   26.5590  -40.9850 C.2      50   A    0.5875
   1589 N3        -10.6310   25.5590  -40.1030 N.2      50   A   -0.6997
   1590 C4        -11.0840   26.0040  -38.9120 C.2      50   A    0.3053
   1591 C5        -11.3860   27.3260  -38.5930 C.2      50   A    0.0515
   1592 C6        -11.2020   28.2920  -39.6140 C.2      50   A    0.7009
   1593 N6        -11.4550   29.5930  -39.4400 N.pl3    50   A   -0.9019
   1594 N7        -11.8270   27.4320  -37.2820 N.2      50   A   -0.6073
   1595 C8        -11.7820   26.1910  -36.8450 C.2      50   A    0.2006
   1596 N9        -11.3580   25.2700  -37.7710 N.pl3    50   A   -0.0251
   1597 OP1       -11.5880   22.7580  -42.8600 O.co2    50   A   -0.7760
   1598 OP2        -9.0400   22.3180  -42.8650 O.co2    50   A   -0.7760
   1599 H5'        -8.5977   21.4038  -40.1292 H        50   A    0.0679
   1600 H5''       -9.0073   23.1284  -40.2768 H        50   A    0.0679
   1601 H4'        -9.1387   21.5804  -37.9688 H        50   A    0.1174
   1602 H3'       -11.5771   20.9452  -39.0680 H        50   A    0.0615
   1603 H2'       -12.3895   23.1885  -39.2182 H        50   A    0.0972
   1604 H1'       -11.2152   23.6540  -36.4589 H        50   A    0.2007
   1605 H2        -10.1265   26.2736  -41.9604 H        50   A    0.0473
   1606 H8        -12.0571   25.9185  -35.8368 H        50   A    0.1553
   1607 H61       -11.7943   29.9267  -38.5492 H        50   A    0.4115
   1608 H62       -11.3068   30.2422  -40.1994 H        50   A    0.4115
   1609 HO2'      -13.8643   23.4358  -37.4580 H        50   A    0.4186
   1610 P         -10.4990   19.4730  -36.8900 P.3      51   C    1.1662
   1611 C5'       -12.9860   19.0230  -36.5380 C.3      51   C    0.0558
   1612 O5'       -11.6740   18.5980  -36.2870 O.3      51   C   -0.4989
   1613 C4'       -13.8520   17.8040  -36.5470 C.3      51   C    0.1065
   1614 O4'       -13.6680   17.0360  -37.7550 O.3      51   C   -0.3548
   1615 C3'       -13.5270   16.8220  -35.4480 C.3      51   C    0.2022
   1616 O3'       -14.1000   17.2930  -34.3090 O.3      51   C   -0.5246
   1617 C2'       -14.2450   15.6110  -35.9700 C.3      51   C    0.0670
   1618 O2'       -15.6520   15.7520  -35.8710 O.3      51   C   -0.6139
   1619 C1'       -13.7190   15.6680  -37.4050 C.3      51   C    0.0066
   1620 N1        -12.3520   15.1100  -37.5950 N.pl3    51   C   -0.0484
   1621 C2        -12.1110   13.7400  -37.4330 C.2      51   C    0.7538
   1622 O2        -13.0500   13.0060  -37.1230 O.2      51   C   -0.6252
   1623 N3        -10.8570   13.2480  -37.6210 N.2      51   C   -0.7584
   1624 C4         -9.8660   14.0740  -37.9670 C.2      51   C    0.8185
   1625 N4         -8.6410   13.5840  -38.1570 N.pl3    51   C   -0.9530
   1626 C5        -10.0990   15.4680  -38.1420 C.2      51   C   -0.5215
   1627 C6        -11.3370   15.9450  -37.9530 C.2      51   C    0.0053
   1628 OP1        -9.4440   19.6440  -35.8680 O.co2    51   C   -0.7760
   1629 OP2       -10.1670   18.9120  -38.2170 O.co2    51   C   -0.7760
   1630 H5'       -13.3129   19.7073  -35.7551 H        51   C    0.0679
   1631 H5''      -13.0352   19.5191  -37.5073 H        51   C    0.0679
   1632 H4'       -14.8969   18.1034  -36.4657 H        51   C    0.1174
   1633 H3'       -12.4551   16.6571  -35.3389 H        51   C    0.0615
   1634 H2'       -13.9058   14.7068  -35.4645 H        51   C    0.0972
   1635 H1'       -14.4152   15.1516  -38.0659 H        51   C    0.2029
   1636 H5         -9.2922   16.1291  -38.4221 H        51   C    0.1928
   1637 H6        -11.5314   16.9991  -38.0855 H        51   C    0.1958
   1638 H41        -8.4680   12.5962  -38.0370 H        51   C    0.4234
   1639 H42        -7.8858   14.2005  -38.4209 H        51   C    0.4234
   1640 HO2'      -16.0780   14.9624  -36.2125 H        51   C    0.4186
   1641 P         -13.2260   17.4850  -33.0130 P.3      52   A    1.1662
   1642 C5'       -14.5540   15.4790  -32.1710 C.3      52   A    0.0558
   1643 O5'       -13.2900   16.0160  -32.4560 O.3      52   A   -0.4989
   1644 C4'       -14.3400   14.1090  -31.6020 C.3      52   A    0.1065
   1645 O4'       -14.3890   13.1130  -32.6650 O.3      52   A   -0.3548
   1646 C3'       -12.9510   13.8800  -31.0210 C.3      52   A    0.2022
   1647 O3'       -12.6650   14.6810  -29.8780 O.3      52   A   -0.5246
   1648 C2'       -13.0890   12.3620  -30.9430 C.3      52   A    0.0670
   1649 O2'       -14.1870   11.8960  -30.1780 O.3      52   A   -0.6139
   1650 C1'       -13.3420   12.1820  -32.4350 C.3      52   A    0.0394
   1651 N1         -8.7770   10.4730  -34.0030 N.2      52   A   -0.7615
   1652 C2         -9.7400    9.9370  -33.2390 C.2      52   A    0.5875
   1653 N3        -10.9170   10.4510  -32.8740 N.2      52   A   -0.6997
   1654 C4        -11.0590   11.6730  -33.3880 C.2      52   A    0.3053
   1655 C5        -10.1570   12.3590  -34.1860 C.2      52   A    0.0515
   1656 C6         -8.9560   11.7030  -34.4980 C.2      52   A    0.7009
   1657 N6         -7.9970   12.2180  -35.2530 N.pl3    52   A   -0.9019
   1658 N7        -10.6460   13.5990  -34.5300 N.2      52   A   -0.6073
   1659 C8        -11.8190   13.6210  -33.9390 C.2      52   A    0.2006
   1660 N9        -12.1420   12.4840  -33.2330 N.pl3    52   A   -0.0251
   1661 OP1       -14.0490   18.2810  -32.0810 O.co2    52   A   -0.7760
   1662 OP2       -11.8290   17.8660  -33.3420 O.co2    52   A   -0.7760
   1663 H5'       -15.0708   16.1072  -31.4455 H        52   A    0.0679
   1664 H5''      -15.1418   15.4114  -33.0864 H        52   A    0.0679
   1665 H4'       -15.1000   13.8927  -30.8512 H        52   A    0.1174
   1666 H3'       -12.2175   14.1150  -31.7923 H        52   A    0.0615
   1667 H2'       -12.1562   11.8899  -30.6346 H        52   A    0.0972
   1668 H1'       -13.6864   11.1683  -32.6399 H        52   A    0.2007
   1669 H2         -9.5335    8.9453  -32.8645 H        52   A    0.0473
   1670 H8        -12.4828   14.4706  -34.0024 H        52   A    0.1553
   1671 HO2'      -13.9025   11.7320  -29.2759 H        52   A    0.4186
   1672 H61        -7.2725   11.5230  -35.3636 H        52   A    0.4115
   1673 H62        -7.9913   13.1467  -35.6500 H        52   A    0.4115
   1674 P         -12.9130   14.2880  -28.3580 P.3      53   G    1.1662
   1675 C5'       -12.7700   11.9310  -27.2020 C.3      53   G    0.0558
   1676 O5'       -12.2440   12.8410  -28.1470 O.3      53   G   -0.4989
   1677 C4'       -11.9200   10.6860  -27.1440 C.3      53   G    0.1065
   1678 O4'       -11.6690   10.1420  -28.4630 O.3      53   G   -0.3548
   1679 C3'       -10.5410   10.9650  -26.6150 C.3      53   G    0.2022
   1680 O3'       -10.5650   11.0550  -25.2090 O.3      53   G   -0.5246
   1681 C2'        -9.7360    9.7840  -27.1340 C.3      53   G    0.0670
   1682 O2'        -9.8760    8.6210  -26.3570 O.3      53   G   -0.6139
   1683 C1'       -10.3420    9.6510  -28.5280 C.3      53   G    0.0191
   1684 N1         -6.1380    9.9480  -31.3870 N.pl3    53   G   -0.4787
   1685 C2         -6.5330    8.9830  -30.5050 C.2      53   G    0.7657
   1686 N2         -5.6770    7.9660  -30.3510 N.pl3    53   G   -0.9672
   1687 N3         -7.6570    9.0260  -29.8140 N.2      53   G   -0.6323
   1688 C4         -8.3900   10.1210  -30.0880 C.2      53   G    0.1222
   1689 C5         -8.1030   11.1370  -30.9610 C.2      53   G    0.1744
   1690 C6         -6.8910   11.0740  -31.6980 C.2      53   G    0.4770
   1691 O6         -6.4300   11.8670  -32.5370 O.2      53   G   -0.5597
   1692 N7         -9.1250   12.0790  -30.9700 N.2      53   G   -0.5709
   1693 C8         -9.9830   11.6370  -30.0950 C.2      53   G    0.1374
   1694 N9         -9.6090   10.4340  -29.5310 N.pl3    53   G    0.0492
   1695 OP1       -14.3890   14.1870  -28.2440 O.co2    53   G   -0.7760
   1696 OP2       -12.1190   15.2340  -27.5350 O.co2    53   G   -0.7760
   1697 H5'       -12.7849   12.4021  -26.2192 H        53   G    0.0679
   1698 H5''      -13.7865   11.6609  -27.4882 H        53   G    0.0679
   1699 H4'       -12.4081    9.9352  -26.5226 H        53   G    0.1174
   1700 H3'       -10.1589   11.8926  -27.0413 H        53   G    0.0615
   1701 H2'        -8.6833   10.0560  -27.2103 H        53   G    0.0972
   1702 H1'       -10.3549    8.6015  -28.8220 H        53   G    0.2006
   1703 H1         -5.2430    9.8364  -31.8415 H        53   G    0.3424
   1704 H8        -10.8932   12.1582  -29.8374 H        53   G    0.1640
   1705 H21        -5.8928    7.2171  -29.7086 H        53   G    0.4364
   1706 H22        -4.8151    7.9473  -30.8772 H        53   G    0.4364
   1707 HO2'       -9.0155    8.2146  -26.2305 H        53   G    0.4186
   1708 P          -9.5010   12.0760  -24.5990 P.3      54   G    1.1662
   1709 C5'        -7.8090   10.1200  -24.2100 C.3      54   G    0.0558
   1710 O5'        -8.1390   11.2880  -24.9080 O.3      54   G   -0.4989
   1711 C4'        -6.5020    9.5760  -24.7280 C.3      54   G    0.1065
   1712 O4'        -6.5790    9.3550  -26.1470 O.3      54   G   -0.3548
   1713 C3'        -5.3090   10.4950  -24.6250 C.3      54   G    0.2022
   1714 O3'        -4.9850   10.6030  -23.2640 O.3      54   G   -0.5246
   1715 C2'        -4.3530    9.7310  -25.5530 C.3      54   G    0.0670
   1716 O2'        -3.8720    8.4690  -25.1250 O.3      54   G   -0.6139
   1717 C1'        -5.2920    9.5120  -26.7180 C.3      54   G    0.0191
   1718 N1         -2.7460   11.8010  -30.4470 N.pl3    54   G   -0.4787
   1719 C2         -2.4230   10.6690  -29.7370 C.2      54   G    0.7657
   1720 N2         -1.2740   10.0870  -30.0910 N.pl3    54   G   -0.9672
   1721 N3         -3.1770   10.1590  -28.7680 N.2      54   G   -0.6323
   1722 C4         -4.3020   10.8980  -28.5710 C.2      54   G    0.1222
   1723 C5         -4.7170   12.0470  -29.2230 C.2      54   G    0.1744
   1724 C6         -3.8980   12.5700  -30.2460 C.2      54   G    0.4770
   1725 O6         -4.0980   13.5690  -30.9390 O.2      54   G   -0.5597
   1726 N7         -5.9300   12.5110  -28.7390 N.2      54   G   -0.5709
   1727 C8         -6.2190   11.6410  -27.8090 C.2      54   G    0.1374
   1728 N9         -5.2820   10.6320  -27.6540 N.pl3    54   G    0.0492
   1729 OP1        -9.7320   12.1850  -23.1340 O.co2    54   G   -0.7760
   1730 OP2        -9.4910   13.2960  -25.4540 O.co2    54   G   -0.7760
   1731 H5'        -7.7125   10.3467  -23.1482 H        54   G    0.0679
   1732 H5''       -8.5938    9.3773  -24.3531 H        54   G    0.0679
   1733 H4'        -6.2778    8.6344  -24.2267 H        54   G    0.1174
   1734 H3'        -5.5440   11.4747  -25.0410 H        54   G    0.0615
   1735 H2'        -3.5228   10.3712  -25.8512 H        54   G    0.0972
   1736 H1'        -5.0133    8.5979  -27.2423 H        54   G    0.2006
   1737 H1         -2.1042   12.1000  -31.1673 H        54   G    0.3424
   1738 H8         -7.1152   11.7029  -27.2096 H        54   G    0.1640
   1739 H21        -0.9661    9.2488  -29.6190 H        54   G    0.4364
   1740 H22        -0.7132   10.4851  -30.8306 H        54   G    0.4364
   1741 HO2'       -3.2731    8.5887  -24.3844 H        54   G    0.4186
   1742 P          -3.6510   11.2520  -22.6860 P.3      55   G    1.1662
   1743 C5'        -1.3310   10.4480  -23.4180 C.3      55   G    0.0558
   1744 O5'        -2.5840   10.8990  -23.7870 O.3      55   G   -0.4989
   1745 C4'        -0.4350   10.6100  -24.6150 C.3      55   G    0.1065
   1746 O4'        -1.1920   10.7940  -25.8440 O.3      55   G   -0.3548
   1747 C3'         0.4090   11.8540  -24.5780 C.3      55   G    0.2022
   1748 O3'         1.4510   11.6440  -23.6730 O.3      55   G   -0.5246
   1749 C2'         0.8560   11.9030  -26.0270 C.3      55   G    0.0670
   1750 O2'         1.8340   10.9200  -26.2850 O.3      55   G   -0.6139
   1751 C1'        -0.4450   11.5810  -26.7490 C.3      55   G    0.0191
   1752 N1         -1.0020   15.6790  -29.7450 N.pl3    55   G   -0.4787
   1753 C2          0.0290   14.7520  -29.7370 C.2      55   G    0.7657
   1754 N2          1.0290   14.9120  -30.6180 N.pl3    55   G   -0.9672
   1755 N3          0.0760   13.7180  -28.9100 N.2      55   G   -0.6323
   1756 C4         -1.0010   13.6810  -28.0810 C.2      55   G    0.1222
   1757 C5         -2.0630   14.5590  -28.0260 C.2      55   G    0.1744
   1758 C6         -2.1080   15.6460  -28.8970 C.2      55   G    0.4770
   1759 O6         -2.9940   16.4920  -28.9390 O.2      55   G   -0.5597
   1760 N7         -2.9690   14.1980  -27.0480 N.2      55   G   -0.5709
   1761 C8         -2.4540   13.1150  -26.5270 C.2      55   G    0.1374
   1762 N9         -1.2580   12.7370  -27.1030 N.pl3    55   G    0.0492
   1763 OP1        -3.3520   10.5150  -21.4400 O.co2    55   G   -0.7760
   1764 OP2        -3.7460   12.7250  -22.6210 O.co2    55   G   -0.7760
   1765 H5'        -1.3816    9.3986  -23.1278 H        55   G    0.0679
   1766 H5''       -0.9521   11.0443  -22.5880 H        55   G    0.0679
   1767 H4'         0.2084    9.7353  -24.7102 H        55   G    0.1174
   1768 H3'        -0.1817   12.7305  -24.3117 H        55   G    0.0615
   1769 H2'         1.2176   12.8962  -26.2932 H        55   G    0.0972
   1770 H1'        -0.2296   10.9993  -27.6453 H        55   G    0.2006
   1771 H1         -0.9478   16.4335  -30.4143 H        55   G    0.3424
   1772 H8         -2.9207   12.5675  -25.7215 H        55   G    0.1640
   1773 H21         1.0163   15.6913  -31.2603 H        55   G    0.4364
   1774 H22         1.7942   14.2531  -30.6386 H        55   G    0.4364
   1775 HO2'        2.1022   10.9686  -27.2055 H        55   G    0.4186
   1776 P           2.1280   12.9260  -23.0250 P.3      56   U    1.1662
   1777 C5'         4.1150   13.1400  -24.7130 C.3      56   U    0.0558
   1778 O5'         2.8260   13.5680  -24.3130 O.3      56   U   -0.4989
   1779 C4'         4.5910   13.9300  -25.9060 C.3      56   U    0.1065
   1780 O4'         3.5200   14.1100  -26.8440 O.3      56   U   -0.3548
   1781 C3'         5.0070   15.3460  -25.5940 C.3      56   U    0.2022
   1782 O3'         6.2760   15.3750  -24.9860 O.3      56   U   -0.5246
   1783 C2'         4.9930   15.9370  -26.9820 C.3      56   U    0.0670
   1784 O2'         6.0880   15.4910  -27.7520 O.3      56   U   -0.6139
   1785 C1'         3.6920   15.3460  -27.4970 C.3      56   U    0.0674
   1786 N1          2.4440   16.1460  -27.2640 N.pl3    56   U    0.0418
   1787 C2          2.0290   17.0330  -28.2330 C.2      56   U    0.4687
   1788 O2          2.6400   17.2180  -29.2580 O.2      56   U   -0.5477
   1789 N3          0.8620   17.7080  -27.9890 N.pl3    56   U   -0.3549
   1790 C4          0.0870   17.6030  -26.8580 C.2      56   U    0.5952
   1791 O4         -0.9230   18.2810  -26.7750 O.2      56   U   -0.5761
   1792 C5          0.5540   16.6650  -25.8690 C.2      56   U   -0.3635
   1793 C6          1.6930   15.9810  -26.1060 C.2      56   U   -0.1126
   1794 OP1         3.1710   12.3990  -22.1100 O.co2    56   U   -0.7760
   1795 OP2         1.0750   13.8600  -22.5520 O.co2    56   U   -0.7760
   1796 H5'         4.0755   12.0830  -24.9763 H        56   U    0.0679
   1797 H5''        4.8128   13.2794  -23.8873 H        56   U    0.0679
   1798 H4'         5.4152   13.4042  -26.3880 H        56   U    0.1174
   1799 H3'         4.2660   15.8339  -24.9608 H        56   U    0.0615
   1800 H2'         4.9485   17.0256  -26.9491 H        56   U    0.0972
   1801 H1'         3.7928   15.1629  -28.5668 H        56   U    0.1824
   1802 H3          0.5410   18.3419  -28.7068 H        56   U    0.3154
   1803 H5          0.0019   16.5119  -24.9535 H        56   U    0.1811
   1804 H6          2.0357   15.2750  -25.3640 H        56   U    0.2188
   1805 HO2'        6.1767   16.0427  -28.5326 H        56   U    0.4186
   1806 P           6.4090   16.4020  -23.7860 P.3      57   A    1.1662
   1807 C5'         6.4520   19.0540  -24.0860 C.3      57   A    0.0558
   1808 O5'         6.6420   17.7380  -24.6510 O.3      57   A   -0.4989
   1809 C4'         6.8090   20.1540  -25.0690 C.3      57   A    0.1065
   1810 O4'         8.1660   19.9500  -25.5120 O.3      57   A   -0.3548
   1811 C3'         5.9470   20.1910  -26.3260 C.3      57   A    0.2022
   1812 O3'         4.8430   21.0820  -26.2090 O.3      57   A   -0.5246
   1813 C2'         6.8960   20.5020  -27.4810 C.3      57   A    0.0670
   1814 O2'         6.8200   21.7780  -28.0910 O.3      57   A   -0.6139
   1815 C1'         8.2780   20.2630  -26.8810 C.3      57   A    0.0394
   1816 N1          9.8940   18.6090  -31.4380 N.2      57   A   -0.7615
   1817 C2          9.3300   19.7510  -31.0620 C.2      57   A    0.5875
   1818 N3          8.9260   20.1120  -29.8470 N.2      57   A   -0.6997
   1819 C4          9.1650   19.1410  -28.9490 C.2      57   A    0.3053
   1820 C5          9.7360   17.9170  -29.1900 C.2      57   A    0.0515
   1821 C6         10.1200   17.6560  -30.5120 C.2      57   A    0.7009
   1822 N6         10.6870   16.4990  -30.8750 N.pl3    57   A   -0.9019
   1823 N7          9.8220   17.1710  -28.0290 N.2      57   A   -0.6073
   1824 C8          9.3090   17.9560  -27.1100 C.2      57   A    0.2006
   1825 N9          8.9010   19.1610  -27.5970 N.pl3    57   A   -0.0251
   1826 OP1         7.6010   16.1610  -22.9290 O.co2    57   A   -0.7760
   1827 OP2         5.0560   16.4920  -23.1870 O.co2    57   A   -0.7760
   1828 H5'         5.4065   19.1654  -23.7985 H        57   A    0.0679
   1829 H5''        7.0772   19.1535  -23.1987 H        57   A    0.0679
   1830 H4'         6.7415   21.1174  -24.5637 H        57   A    0.1174
   1831 H3'         5.5489   19.1888  -26.4846 H        57   A    0.0615
   1832 H2'         6.7349   19.7523  -28.2556 H        57   A    0.0972
   1833 H1'         8.8846   21.1609  -26.9990 H        57   A    0.2007
   1834 H2          9.1799   20.4810  -31.8436 H        57   A    0.0473
   1835 H8          9.2194   17.6743  -26.0712 H        57   A    0.1553
   1836 HO2'        6.2618   21.7278  -28.8704 H        57   A    0.4186
   1837 H61        11.2360   16.0232  -31.5766 H        57   A    0.4115
   1838 H62        10.4816   15.8261  -30.1503 H        57   A    0.4115
   1839 P           3.4160   20.3700  -26.2700 P.3      58   A    1.1662
   1840 C5'         2.9500   21.5170  -28.5090 C.3      58   A    0.0558
   1841 O5'         3.2080   20.3090  -27.8440 O.3      58   A   -0.4989
   1842 C4'         3.6910   21.6400  -29.8170 C.3      58   A    0.1065
   1843 O4'         5.0410   21.1330  -29.7960 O.3      58   A   -0.3548
   1844 C3'         3.0420   20.8430  -30.9100 C.3      58   A    0.2022
   1845 O3'         1.9210   21.5430  -31.3660 O.3      58   A   -0.5246
   1846 C2'         4.1230   20.7930  -31.9510 C.3      58   A    0.0670
   1847 O2'         4.1580   22.0190  -32.6510 O.3      58   A   -0.6139
   1848 C1'         5.3550   20.5880  -31.0790 C.3      58   A    0.0394
   1849 N1          7.9470   16.4790  -33.0400 N.2      58   A   -0.7615
   1850 C2          7.6390   17.6780  -33.5750 C.2      58   A    0.5875
   1851 N3          6.9690   18.7040  -33.0250 N.2      58   A   -0.6997
   1852 C4          6.5650   18.4130  -31.7810 C.2      58   A    0.3053
   1853 C5          6.8130   17.2260  -31.1090 C.2      58   A    0.0515
   1854 C6          7.5350   16.2220  -31.7800 C.2      58   A    0.7009
   1855 N6          7.8020   15.0400  -31.2270 N.pl3    58   A   -0.9019
   1856 N7          6.2620   17.2440  -29.8540 N.2      58   A   -0.6073
   1857 C8          5.7010   18.4230  -29.7880 C.2      58   A    0.2006
   1858 N9          5.8390   19.2010  -30.9120 N.pl3    58   A   -0.0251
   1859 OP1         2.3350   21.2190  -25.7470 O.co2    58   A   -0.7760
   1860 OP2         3.5990   19.0350  -25.6740 O.co2    58   A   -0.7760
   1861 H5'         3.2499   22.3408  -27.8613 H        58   A    0.0679
   1862 H5''        1.8798   21.5917  -28.7017 H        58   A    0.0679
   1863 H4'         3.7133   22.6891  -30.1118 H        58   A    0.1174
   1864 H3'         2.7740   19.8436  -30.5674 H        58   A    0.0615
   1865 H2'         3.9771   19.9541  -32.6315 H        58   A    0.0972
   1866 H1'         6.1677   21.1775  -31.5035 H        58   A    0.2007
   1867 H2          7.9788   17.8353  -34.5880 H        58   A    0.0473
   1868 H8          5.1671   18.7613  -28.9123 H        58   A    0.1553
   1869 HO2'        4.7227   21.9316  -33.4224 H        58   A    0.4186
   1870 H61         8.4820   14.6378  -31.8562 H        58   A    0.4115
   1871 H62         7.4173   14.6420  -30.3822 H        58   A    0.4115
   1872 P           0.5820   20.7080  -31.3880 P.3      59   U    1.1662
   1873 C5'         0.3840   20.4040  -33.9720 C.3      59   U    0.0558
   1874 O5'         0.8170   19.8880  -32.7430 O.3      59   U   -0.4989
   1875 C4'         1.1390   19.7950  -35.1430 C.3      59   U    0.1065
   1876 O4'         2.5220   19.5030  -34.8270 O.3      59   U   -0.3548
   1877 C3'         0.5950   18.4560  -35.5770 C.3      59   U    0.2022
   1878 O3'        -0.5810   18.6000  -36.3500 O.3      59   U   -0.5246
   1879 C2'         1.7520   17.8680  -36.3580 C.3      59   U    0.0670
   1880 O2'         1.7800   18.3060  -37.6960 O.3      59   U   -0.6139
   1881 C1'         2.9450   18.3670  -35.5640 C.3      59   U    0.0674
   1882 N1          3.5300   17.3540  -34.6300 N.pl3    59   U    0.0418
   1883 C2          4.5250   16.5240  -35.0810 C.2      59   U    0.4687
   1884 O2          4.9390   16.5440  -36.2210 O.2      59   U   -0.5477
   1885 N3          5.0320   15.6450  -34.1610 N.pl3    59   U   -0.3549
   1886 C4          4.6370   15.4980  -32.8440 C.2      59   U    0.5952
   1887 O4          5.1710   14.6510  -32.1230 O.2      59   U   -0.5761
   1888 C5          3.6070   16.4110  -32.4380 C.2      59   U   -0.3635
   1889 C6          3.1040   17.2760  -33.3260 C.2      59   U   -0.1126
   1890 OP1        -0.5940   21.5860  -31.5700 O.co2    59   U   -0.7760
   1891 OP2         0.6640   19.8420  -30.1860 O.co2    59   U   -0.7760
   1892 H5'        -0.6784   20.1899  -34.0888 H        59   U    0.0679
   1893 H5''        0.5319   21.4839  -33.9764 H        59   U    0.0679
   1894 H4'         1.1041   20.4842  -35.9867 H        59   U    0.1174
   1895 H3'         0.3888   17.8397  -34.7019 H        59   U    0.0615
   1896 H2'         1.7101   16.7794  -36.3231 H        59   U    0.0972
   1897 H1'         3.7198   18.6788  -36.2644 H        59   U    0.1824
   1898 H3          5.7746   15.0387  -34.4789 H        59   U    0.3154
   1899 H5          3.2403   16.3999  -31.4222 H        59   U    0.1811
   1900 H6          2.3230   17.9475  -33.0012 H        59   U    0.2188
   1901 HO2'        1.4354   17.6147  -38.2660 H        59   U    0.4186
   1902 P          -1.7600   17.7020  -35.8180 P.3      60   G    1.1662
   1903 C5'        -2.1600   15.2700  -36.8880 C.3      60   G    0.0558
   1904 O5'        -1.2870   16.3680  -36.5510 O.3      60   G   -0.4989
   1905 C4'        -1.5910   14.4300  -38.0320 C.3      60   G    0.1065
   1906 O4'        -2.4350   14.5940  -39.2130 O.3      60   G   -0.3548
   1907 C3'        -0.1580   14.7750  -38.4860 C.3      60   G    0.2022
   1908 O3'         0.8390   14.0000  -37.8300 O.3      60   G   -0.5246
   1909 C2'        -0.2870   14.4370  -39.9490 C.3      60   G    0.0670
   1910 O2'        -0.3670   13.0450  -40.1290 O.3      60   G   -0.6139
   1911 C1'        -1.6190   15.0760  -40.2790 C.3      60   G    0.0191
   1912 N1         -0.0630   19.2350  -42.9340 N.pl3    60   G   -0.4787
   1913 C2         -0.0110   17.9070  -43.3160 C.2      60   G    0.7657
   1914 N2          0.5070   17.6800  -44.5290 N.pl3    60   G   -0.9672
   1915 N3         -0.4400   16.8840  -42.5710 N.2      60   G   -0.6323
   1916 C4         -0.9390   17.3170  -41.3740 C.2      60   G    0.1222
   1917 C5         -1.0240   18.6300  -40.9110 C.2      60   G    0.1744
   1918 C6         -0.5700   19.6920  -41.7090 C.2      60   G    0.4770
   1919 O6         -0.6040   20.8910  -41.3940 O.2      60   G   -0.5597
   1920 N7         -1.5840   18.7100  -39.6430 N.2      60   G   -0.5709
   1921 C8         -1.8430   17.4580  -39.3540 C.2      60   G    0.1374
   1922 N9         -1.4830   16.5470  -40.3440 N.pl3    60   G    0.0492
   1923 OP1        -3.1040   18.0480  -36.3240 O.co2    60   G   -0.7760
   1924 OP2        -1.5160   17.6060  -34.3640 O.co2    60   G   -0.7760
   1925 H5'        -2.2845   14.6350  -36.0109 H        60   G    0.0679
   1926 H5''       -3.1320   15.6646  -37.1840 H        60   G    0.0679
   1927 H4'        -1.6150   13.3817  -37.7345 H        60   G    0.1174
   1928 H3'         0.0382   15.8392  -38.3556 H        60   G    0.0615
   1929 H2'         0.5230   14.8718  -40.5346 H        60   G    0.0972
   1930 H1'        -1.9882   14.6947  -41.2310 H        60   G    0.2006
   1931 H1          0.2889   19.9243  -43.5829 H        60   G    0.3424
   1932 H8         -2.2992   17.1569  -38.4225 H        60   G    0.1640
   1933 H21         0.8288   18.4532  -45.0935 H        60   G    0.4364
   1934 H22         0.5761   16.7354  -44.8799 H        60   G    0.4364
   1935 HO2'        0.4117   12.7381  -40.5991 H        60   G    0.4186
   1936 P           2.2760   13.6350  -38.4270 P.3      61   C    1.1662
   1937 C5'         3.9890   12.3930  -36.8180 C.3      61   C    0.0558
   1938 O5'         3.0010   13.4110  -37.0180 O.3      61   C   -0.4989
   1939 C4'         3.8590   11.5660  -35.5380 C.3      61   C    0.1065
   1940 O4'         3.7110   12.3750  -34.3340 O.3      61   C   -0.3548
   1941 C3'         2.6960   10.6000  -35.4780 C.3      61   C    0.2022
   1942 O3'         3.0210    9.4440  -36.2240 O.3      61   C   -0.5246
   1943 C2'         2.6400   10.3580  -33.9760 C.3      61   C    0.0670
   1944 O2'         3.7170    9.5930  -33.4920 O.3      61   C   -0.6139
   1945 C1'         2.7950   11.7670  -33.4390 C.3      61   C    0.0066
   1946 N1          1.4980   12.5390  -33.3760 N.pl3    61   C   -0.0484
   1947 C2          0.5680   12.3060  -32.3450 C.2      61   C    0.7538
   1948 O2          0.8070   11.4620  -31.4690 O.2      61   C   -0.6252
   1949 N3         -0.5840   13.0280  -32.3390 N.2      61   C   -0.7584
   1950 C4         -0.8290   13.9340  -33.2910 C.2      61   C    0.8185
   1951 N4         -1.9680   14.6200  -33.2650 N.pl3    61   C   -0.9530
   1952 C5          0.0920   14.1780  -34.3380 C.2      61   C   -0.5215
   1953 C6          1.2250   13.4720  -34.3440 C.2      61   C    0.0053
   1954 OP1         2.8610   14.7870  -39.1340 O.co2    61   C   -0.7760
   1955 OP2         2.2230   12.3490  -39.1580 O.co2    61   C   -0.7760
   1956 H5'         4.9658   12.8765  -36.8033 H        61   C    0.0679
   1957 H5''        3.9567   11.7130  -37.6693 H        61   C    0.0679
   1958 H4'         4.7740   10.9836  -35.4304 H        61   C    0.1174
   1959 H3'         1.7774   11.0614  -35.8405 H        61   C    0.0615
   1960 H2'         1.6840    9.9256  -33.6808 H        61   C    0.0972
   1961 H1'         3.2379   11.7260  -32.4439 H        61   C    0.2029
   1962 H5         -0.1147   14.9097  -35.1050 H        61   C    0.1928
   1963 H6          1.9452   13.6397  -35.1311 H        61   C    0.1958
   1964 H41        -2.1622   15.3038  -33.9825 H        61   C    0.4234
   1965 H42        -2.6389   14.4572  -32.5278 H        61   C    0.4234
   1966 HO2'        3.6431    8.6932  -33.8182 H        61   C    0.4186
   1967 P           1.9050    8.4240  -36.7630 P.3      62   C    1.1662
   1968 C5'         1.9750    6.7220  -34.7660 C.3      62   C    0.0558
   1969 O5'         1.3310    7.7930  -35.4180 O.3      62   C   -0.4989
   1970 C4'         1.0420    6.1650  -33.7050 C.3      62   C    0.1065
   1971 O4'         0.6900    7.1800  -32.7330 O.3      62   C   -0.3548
   1972 C3'        -0.3060    5.7000  -34.2060 C.3      62   C    0.2022
   1973 O3'        -0.1370    4.4440  -34.8140 O.3      62   C   -0.5246
   1974 C2'        -1.1030    5.6750  -32.9050 C.3      62   C    0.0670
   1975 O2'        -0.8640    4.5580  -32.0950 O.3      62   C   -0.6139
   1976 C1'        -0.6040    6.9480  -32.2310 C.3      62   C    0.0066
   1977 N1         -1.4940    8.0780  -32.5840 N.pl3    62   C   -0.0484
   1978 C2         -2.7960    8.0530  -32.0400 C.2      62   C    0.7538
   1979 O2         -3.1320    7.1250  -31.2760 O.2      62   C   -0.6252
   1980 N3         -3.6510    9.0540  -32.3730 N.2      62   C   -0.7584
   1981 C4         -3.2500   10.0280  -33.1910 C.2      62   C    0.8185
   1982 N4         -4.1540   10.9730  -33.4620 N.pl3    62   C   -0.9530
   1983 C5         -1.9360   10.0700  -33.7600 C.2      62   C   -0.5215
   1984 C6         -1.0970    9.0840  -33.4400 C.2      62   C    0.0053
   1985 OP1         2.6150    7.4170  -37.5800 O.co2    62   C   -0.7760
   1986 OP2         0.7820    9.1650  -37.3670 O.co2    62   C   -0.7760
   1987 H5'         2.2139    5.9427  -35.4897 H        62   C    0.0679
   1988 H5''        2.8918    7.0781  -34.2962 H        62   C    0.0679
   1989 H4'         1.5365    5.3388  -33.1941 H        62   C    0.1174
   1990 H3'        -0.7293    6.4184  -34.9080 H        62   C    0.0615
   1991 H2'        -2.1685    5.7594  -33.1188 H        62   C    0.0972
   1992 H1'        -0.5719    6.8156  -31.1496 H        62   C    0.2029
   1993 H5         -1.6365   10.8689  -34.4222 H        62   C    0.1928
   1994 H6         -0.0996    9.0732  -33.8541 H        62   C    0.1958
   1995 H41        -5.0757   10.9226  -33.0521 H        62   C    0.4234
   1996 H42        -3.9160   11.7381  -34.0769 H        62   C    0.4234
   1997 HO2'       -1.1847    3.7679  -32.5360 H        62   C    0.4186
   1998 P          -1.1850    3.7970  -35.8130 P.3      63   U    1.1662
   1999 C5'        -3.1360    2.7770  -34.3630 C.3      63   U    0.0558
   2000 O5'        -2.5790    3.8880  -35.0470 O.3      63   U   -0.4989
   2001 C4'        -4.4570    3.1630  -33.7210 C.3      63   U    0.1065
   2002 O4'        -4.3350    4.4350  -33.0440 O.3      63   U   -0.3548
   2003 C3'        -5.6190    3.4000  -34.6640 C.3      63   U    0.2022
   2004 O3'        -6.1370    2.1810  -35.0210 O.3      63   U   -0.5246
   2005 C2'        -6.5860    4.1620  -33.7760 C.3      63   U    0.0670
   2006 O2'        -7.3280    3.3520  -32.8790 O.3      63   U   -0.6139
   2007 C1'        -5.6010    5.0810  -33.0660 C.3      63   U    0.0674
   2008 N1         -5.5190    6.3660  -33.7800 N.pl3    63   U    0.0418
   2009 C2         -6.5410    7.2660  -33.6080 C.2      63   U    0.4687
   2010 O2         -7.4940    7.0780  -32.8950 O.2      63   U   -0.5477
   2011 N3         -6.4150    8.4340  -34.2970 N.pl3    63   U   -0.3549
   2012 C4         -5.3770    8.7770  -35.1520 C.2      63   U    0.5952
   2013 O4         -5.4010    9.8750  -35.7130 O.2      63   U   -0.5761
   2014 C5         -4.3380    7.7730  -35.2870 C.2      63   U   -0.3635
   2015 C6         -4.4530    6.6190  -34.6160 C.2      63   U   -0.1126
   2016 OP1        -0.7640    2.3910  -35.9030 O.co2    63   U   -0.7760
   2017 OP2        -1.3420    4.6450  -37.0100 O.co2    63   U   -0.7760
   2018 H5'        -2.4430    2.4467  -33.5892 H        63   U    0.0679
   2019 H5''       -3.3020    1.9641  -35.0699 H        63   U    0.0679
   2020 H4'        -4.7371    2.3990  -32.9957 H        63   U    0.1174
   2021 H3'        -5.3216    3.9846  -35.5346 H        63   U    0.0615
   2022 H2'        -7.2659    4.7523  -34.3904 H        63   U    0.0972
   2023 H1'        -5.9380    5.2543  -32.0440 H        63   U    0.1824
   2024 H3         -7.1485    9.1172  -34.1737 H        63   U    0.3154
   2025 H5         -3.4823    7.9538  -35.9207 H        63   U    0.1811
   2026 H6         -3.6884    5.8654  -34.7337 H        63   U    0.2188
   2027 HO2'       -8.2662    3.5135  -33.0026 H        63   U    0.4186
   2028 P          -6.6250    1.8520  -36.4970 P.3      64   G    1.1662
   2029 C5'        -8.6610    3.2220  -36.2190 C.3      64   G    0.0558
   2030 O5'        -8.1910    1.9440  -36.3010 O.3      64   G   -0.4989
   2031 C4'        -9.8910    3.3280  -35.3590 C.3      64   G    0.1065
   2032 O4'        -9.7060    4.3760  -34.3730 O.3      64   G   -0.3548
   2033 C3'       -11.0810    3.7260  -36.2080 C.3      64   G    0.2022
   2034 O3'       -11.9340    2.6070  -36.3370 O.3      64   G   -0.5246
   2035 C2'       -11.6630    4.9620  -35.5130 C.3      64   G    0.0670
   2036 O2'       -12.7290    4.7050  -34.6230 O.3      64   G   -0.6139
   2037 C1'       -10.4320    5.5280  -34.7920 C.3      64   G    0.0191
   2038 N1        -10.1480   10.0450  -37.1730 N.pl3    64   G   -0.4787
   2039 C2        -11.1270    9.5600  -36.3480 C.2      64   G    0.7657
   2040 N2        -12.1590   10.3660  -36.1310 N.pl3    64   G   -0.9672
   2041 N3        -11.0970    8.3690  -35.7770 N.2      64   G   -0.6323
   2042 C4         -9.9790    7.6790  -36.0950 C.2      64   G    0.1222
   2043 C5         -8.9520    8.0850  -36.9020 C.2      64   G    0.1744
   2044 C6         -8.9890    9.3430  -37.5050 C.2      64   G    0.4770
   2045 O6         -8.1190    9.8200  -38.2480 O.2      64   G   -0.5597
   2046 N7         -7.9770    7.1320  -37.0110 N.2      64   G   -0.5709
   2047 C8         -8.4150    6.1740  -36.2590 C.2      64   G    0.1374
   2048 N9         -9.6380    6.4150  -35.6700 N.pl3    64   G    0.0492
   2049 OP1        -6.2460    0.4310  -36.7200 O.co2    64   G   -0.7760
   2050 OP2        -6.2560    2.8920  -37.4810 O.co2    64   G   -0.7760
   2051 H5'        -7.8817    3.8546  -35.7941 H        64   G    0.0679
   2052 H5''       -8.8982    3.5773  -37.2218 H        64   G    0.0679
   2053 H4'       -10.0852    2.3768  -34.8634 H        64   G    0.1174
   2054 H3'       -10.7263    4.0136  -37.1977 H        64   G    0.0615
   2055 H2'       -11.9930    5.6745  -36.2690 H        64   G    0.0972
   2056 H1'       -10.7556    6.0875  -33.9143 H        64   G    0.2006
   2057 H1        -10.2724   10.9674  -37.5652 H        64   G    0.3424
   2058 H8         -7.8653    5.2572  -36.1049 H        64   G    0.1640
   2059 H21       -12.1878   11.2776  -36.5650 H        64   G    0.4364
   2060 H22       -12.9155   10.0678  -35.5319 H        64   G    0.4364
   2061 HO2'      -12.9864    5.5213  -34.1882 H        64   G    0.4186
   2062 P         -12.5720    2.3210  -37.7740 P.3      65   C    1.1662
   2063 C5'       -14.2310    4.2600  -37.7290 C.3      65   C    0.0558
   2064 O5'       -13.0050    3.7850  -38.2130 O.3      65   C   -0.4989
   2065 C4'       -14.5180    5.6440  -38.2550 C.3      65   C    0.1065
   2066 O4'       -13.4920    6.5610  -37.8060 O.3      65   C   -0.3548
   2067 C3'       -14.5550    5.7890  -39.7680 C.3      65   C    0.2022
   2068 O3'       -15.7800    5.2250  -40.2330 O.3      65   C   -0.5246
   2069 C2'       -14.4100    7.3080  -39.8150 C.3      65   C    0.0670
   2070 O2'       -15.6070    7.9650  -39.4530 O.3      65   C   -0.6139
   2071 C1'       -13.3250    7.5810  -38.7650 C.3      65   C    0.0066
   2072 N1        -11.8910    7.5320  -39.2380 N.pl3    65   C   -0.0484
   2073 C2        -11.3900    8.5680  -40.0160 C.2      65   C    0.7538
   2074 O2        -12.1490    9.4890  -40.2950 O.2      65   C   -0.6252
   2075 N3        -10.1010    8.5400  -40.4450 N.2      65   C   -0.7584
   2076 C4         -9.3030    7.5270  -40.1200 C.2      65   C    0.8185
   2077 N4         -8.0400    7.5330  -40.5590 N.pl3    65   C   -0.9530
   2078 C5         -9.7880    6.4560  -39.3230 C.2      65   C   -0.5215
   2079 C6        -11.0620    6.4930  -38.9100 C.2      65   C    0.0053
   2080 OP1       -13.8120    1.5520  -37.5200 O.co2    65   C   -0.7760
   2081 OP2       -11.5580    1.8530  -38.7460 O.co2    65   C   -0.7760
   2082 H5'       -14.1961    4.2925  -36.6400 H        65   C    0.0679
   2083 H5''      -15.0269    3.5845  -38.0427 H        65   C    0.0679
   2084 H4'       -15.4759    5.9742  -37.8531 H        65   C    0.1174
   2085 H3'       -13.6978    5.2990  -40.2297 H        65   C    0.0615
   2086 H2'       -14.0786    7.6312  -40.8018 H        65   C    0.0972
   2087 H1'       -13.5148    8.5469  -38.2970 H        65   C    0.2029
   2088 H5         -9.1445    5.6307  -39.0560 H        65   C    0.1928
   2089 H6        -11.4439    5.6845  -38.3043 H        65   C    0.1958
   2090 H41        -7.7062    8.2991  -41.1263 H        65   C    0.4234
   2091 H42        -7.4198    6.7715  -40.3233 H        65   C    0.4234
   2092 HO2'      -16.1956    7.9991  -40.2106 H        65   C    0.4186
   2093 P         -16.3620    5.4020  -41.7100 P.3      66   G    1.1662
   2094 C5'       -15.2530    3.0950  -42.2570 C.3      66   G    0.0558
   2095 O5'       -15.4150    4.4710  -42.5890 O.3      66   G   -0.4989
   2096 C4'       -14.1380    2.4230  -43.0430 C.3      66   G    0.1065
   2097 O4'       -13.3570    3.4150  -43.7590 O.3      66   G   -0.3548
   2098 C3'       -13.1550    1.6610  -42.1680 C.3      66   G    0.2022
   2099 O3'       -12.6300    0.5040  -42.8290 O.3      66   G   -0.5246
   2100 C2'       -12.0900    2.7140  -41.9210 C.3      66   G    0.0670
   2101 O2'       -10.8690    2.0970  -41.5570 O.3      66   G   -0.6139
   2102 C1'       -12.0420    3.4410  -43.2740 C.3      66   G    0.0191
   2103 N1         -8.1240    6.6950  -43.5270 N.pl3    66   G   -0.4787
   2104 C2         -8.1610    5.3330  -43.6030 C.2      66   G    0.7657
   2105 N2         -6.9880    4.7250  -43.7870 N.pl3    66   G   -0.9672
   2106 N3         -9.2540    4.5990  -43.5380 N.2      66   G   -0.6323
   2107 C4        -10.3560    5.3480  -43.3560 C.2      66   G    0.1222
   2108 C5        -10.4340    6.7220  -43.2540 C.2      66   G    0.1744
   2109 C6         -9.2410    7.5020  -43.3420 C.2      66   G    0.4770
   2110 O6         -9.0530    8.7400  -43.2830 O.2      66   G   -0.5597
   2111 N7        -11.7650    7.0780  -43.0770 N.2      66   G   -0.5709
   2112 C8        -12.4360    5.9500  -43.0710 C.2      66   G    0.1374
   2113 N9        -11.6370    4.8450  -43.2390 N.pl3    66   G    0.0492
   2114 OP1       -16.0760    6.7850  -42.1310 O.co2    66   G   -0.7760
   2115 OP2       -17.7500    4.8930  -41.7670 O.co2    66   G   -0.7760
   2116 H5'       -16.1878    2.5747  -42.4659 H        66   G    0.0679
   2117 H5''      -15.0335    3.0124  -41.1925 H        66   G    0.0679
   2118 H4'       -14.5789    1.7333  -43.7628 H        66   G    0.1174
   2119 H3'       -13.6287    1.3761  -41.2285 H        66   G    0.0615
   2120 H2'       -12.4133    3.3991  -41.1373 H        66   G    0.0972
   2121 H1'       -11.3927    2.8933  -43.9571 H        66   G    0.2006
   2122 H1         -7.2248    7.1472  -43.6108 H        66   G    0.3424
   2123 H8        -13.5075    5.8959  -42.9466 H        66   G    0.1640
   2124 H21        -6.1406    5.2709  -43.8504 H        66   G    0.4364
   2125 H22        -6.9472    3.7187  -43.8629 H        66   G    0.4364
   2126 HO2'      -10.8405    1.9800  -40.6046 H        66   G    0.4186
   2127 P         -13.1970   -0.9820  -42.5860 P.3      67   C    1.1662
   2128 C5'       -14.1690   -2.3420  -44.6420 C.3      67   C    0.0558
   2129 O5'       -13.1060   -1.5930  -44.0630 O.3      67   C   -0.4989
   2130 C4'       -14.7580   -1.6680  -45.8750 C.3      67   C    0.1065
   2131 O4'       -14.2160   -2.3000  -47.0660 O.3      67   C   -0.3548
   2132 C3'       -16.2800   -1.7690  -45.9780 C.3      67   C    0.2022
   2133 O3'       -16.8810   -0.5640  -46.4720 O.3      67   C   -0.5246
   2134 C2'       -16.5150   -2.9600  -46.9120 C.3      67   C    0.0670
   2135 O2'       -17.6150   -2.7970  -47.7930 O.3      67   C   -0.6139
   2136 C1'       -15.1960   -3.1190  -47.6860 C.3      67   C    0.0066
   2137 N1        -14.7600   -4.5810  -47.7290 N.pl3    67   C   -0.0484
   2138 C2        -14.7450   -5.3220  -48.9440 C.2      67   C    0.7538
   2139 O2        -15.0620   -4.7880  -50.0190 O.2      67   C   -0.6252
   2140 N3        -14.3630   -6.6340  -48.9180 N.2      67   C   -0.7584
   2141 C4        -14.0180   -7.2170  -47.7580 C.2      67   C    0.8185
   2142 N4        -13.6400   -8.5020  -47.7850 N.pl3    67   C   -0.9530
   2143 C5        -14.0330   -6.4940  -46.5180 C.2      67   C   -0.5215
   2144 C6        -14.4160   -5.2040  -46.5460 C.2      67   C    0.0053
   2145 OP1       -14.6250   -0.8800  -42.2180 O.co2    67   C   -0.7760
   2146 OP2       -12.2730   -1.6910  -41.6730 O.co2    67   C   -0.7760
   2147 H5'       -13.7891   -3.3227  -44.9285 H        67   C    0.0679
   2148 H5''      -14.9563   -2.4709  -43.8993 H        67   C    0.0679
   2149 H4'       -14.4731   -0.6159  -45.8726 H        67   C    0.1174
   2150 H3'       -16.6914   -1.9978  -44.9949 H        67   C    0.0615
   2151 H2'       -16.6778   -3.8529  -46.3084 H        67   C    0.0972
   2152 H1'       -15.3468   -2.7698  -48.7075 H        67   C    0.2029
   2153 H5        -13.7461   -6.9700  -45.5920 H        67   C    0.1928
   2154 H6        -14.4551   -4.6442  -45.6232 H        67   C    0.1958
   2155 H41       -13.6255   -9.0059  -48.6602 H        67   C    0.4234
   2156 H42       -13.3695   -8.9669  -46.9301 H        67   C    0.4234
   2157 HO2'      -18.4225   -2.7004  -47.2829 H        67   C    0.4186
   2158 P         -18.1580    0.1310  -45.7700 P.3      68   A    1.1662
   2159 C5'       -16.7660    2.1460  -46.5720 C.3      68   A    0.0558
   2160 O5'       -17.6510    1.6280  -45.6320 O.3      68   A   -0.4989
   2161 C4'       -17.3840    3.4120  -47.0570 C.3      68   A    0.1065
   2162 O4'       -17.2120    4.4460  -46.0620 O.3      68   A   -0.3548
   2163 C3'       -16.7320    3.9430  -48.3050 C.3      68   A    0.2022
   2164 O3'       -17.1890    3.1350  -49.3860 O.3      68   A   -0.5246
   2165 C2'       -17.2120    5.3940  -48.1920 C.3      68   A    0.0670
   2166 O2'       -18.5830    5.6180  -48.4360 O.3      68   A   -0.6139
   2167 C1'       -16.9170    5.6570  -46.7210 C.3      68   A    0.0394
   2168 N1        -13.3810    9.3220  -47.1100 N.2      68   A   -0.7615
   2169 C2        -14.6850    9.2930  -47.4150 C.2      68   A    0.5875
   2170 N3        -15.5580    8.3000  -47.2860 N.2      68   A   -0.6997
   2171 C4        -14.9510    7.2210  -46.7720 C.2      68   A    0.3053
   2172 C5        -13.6230    7.0980  -46.4080 C.2      68   A    0.0515
   2173 C6        -12.8040    8.2230  -46.5960 C.2      68   A    0.7009
   2174 N6        -11.5080    8.2480  -46.2830 N.pl3    68   A   -0.9019
   2175 N7        -13.3670    5.8390  -45.9120 N.2      68   A   -0.6073
   2176 C8        -14.5270    5.2320  -45.9860 C.2      68   A    0.2006
   2177 N9        -15.5250    6.0130  -46.4920 N.pl3    68   A   -0.0251
   2178 OP1       -18.2600   -0.3880  -44.3810 O.co2    68   A   -0.7760
   2179 OP2       -19.3380    0.1220  -46.6820 O.co2    68   A   -0.7760
   2180 H5'       -15.7988    2.3479  -46.1116 H        68   A    0.0679
   2181 H5''      -16.6476    1.4465  -47.3995 H        68   A    0.0679
   2182 H4'       -18.4469    3.2534  -47.2392 H        68   A    0.1174
   2183 H3'       -15.6465    3.8915  -48.2211 H        68   A    0.0615
   2184 H2'       -16.6044    6.0438  -48.8219 H        68   A    0.0972
   2185 H1'       -17.5674    6.4486  -46.3490 H        68   A    0.2007
   2186 H2        -15.0842   10.2090  -47.8249 H        68   A    0.0473
   2187 H8        -14.6785    4.2088  -45.6753 H        68   A    0.1553
   2188 HO2'      -18.7172    5.7975  -49.3695 H        68   A    0.4186
   2189 H61       -10.9596    7.4059  -46.3842 H        68   A    0.4115
   2190 H62       -10.9131    9.0389  -46.0812 H        68   A    0.4115
   2191 P         -16.7930    3.3720  -50.9230 P.3      69   G    1.1662
   2192 C5'       -17.0220    5.5260  -52.3190 C.3      69   G    0.0558
   2193 O5'       -17.3490    4.8540  -51.1410 O.3      69   G   -0.4989
   2194 C4'       -17.2890    7.0150  -52.2360 C.3      69   G    0.1065
   2195 O4'       -17.0810    7.5910  -50.9200 O.3      69   G   -0.3548
   2196 C3'       -16.3310    7.7730  -53.1220 C.3      69   G    0.2022
   2197 O3'       -16.8980    7.7470  -54.4010 O.3      69   G   -0.5246
   2198 C2'       -16.2530    9.1270  -52.4380 C.3      69   G    0.0670
   2199 O2'       -17.4260    9.8770  -52.6200 O.3      69   G   -0.6139
   2200 C1'       -16.1210    8.6400  -50.9970 C.3      69   G    0.0191
   2201 N1        -11.0430    9.3080  -50.6330 N.pl3    69   G   -0.4787
   2202 C2        -11.9930   10.1870  -51.0980 C.2      69   G    0.7657
   2203 N2        -11.5210   11.3660  -51.5090 N.pl3    69   G   -0.9672
   2204 N3        -13.2940    9.9260  -51.1580 N.2      69   G   -0.6323
   2205 C4        -13.5700    8.6830  -50.6910 C.2      69   G    0.1222
   2206 C5        -12.6840    7.7450  -50.2050 C.2      69   G    0.1744
   2207 C6        -11.3130    8.0370  -50.1520 C.2      69   G    0.4770
   2208 O6        -10.3920    7.3250  -49.7600 O.2      69   G   -0.5597
   2209 N7        -13.3270    6.5980  -49.8180 N.2      69   G   -0.5709
   2210 C8        -14.5750    6.8420  -50.0870 C.2      69   G    0.1374
   2211 N9        -14.8090    8.0910  -50.6090 N.pl3    69   G    0.0492
   2212 OP1       -17.6160    2.4620  -51.7610 O.co2    69   G   -0.7760
   2213 OP2       -15.3110    3.3150  -51.0440 O.co2    69   G   -0.7760
   2214 H5'       -17.6151    5.1104  -53.1336 H        69   G    0.0679
   2215 H5''      -15.9653    5.3678  -52.5346 H        69   G    0.0679
   2216 H4'       -18.3109    7.2151  -52.5581 H        69   G    0.1174
   2217 H3'       -15.3533    7.2911  -53.1277 H        69   G    0.0615
   2218 H2'       -15.3705    9.6834  -52.7537 H        69   G    0.0972
   2219 H1'       -16.3991    9.4416  -50.3128 H        69   G    0.2006
   2220 H1        -10.0795    9.6107  -50.6428 H        69   G    0.3424
   2221 H8        -15.3622    6.1230  -49.9146 H        69   G    0.1640
   2222 H21       -10.5304   11.5574  -51.4624 H        69   G    0.4364
   2223 H22       -12.1545   12.0667  -51.8666 H        69   G    0.4364
   2224 HO2'      -17.4814   10.1687  -53.5329 H        69   G    0.4186
   2225 P         -16.0430    7.0140  -55.5350 P.3      70   G    1.1662
   2226 C5'       -15.1880    9.4590  -56.2070 C.3      70   G    0.0558
   2227 O5'       -14.9190    8.1300  -55.7450 O.3      70   G   -0.4989
   2228 C4'       -13.8760   10.2140  -56.1170 C.3      70   G    0.1065
   2229 O4'       -13.3880   10.1830  -54.7510 O.3      70   G   -0.3548
   2230 C3'       -12.7440    9.5670  -56.9070 C.3      70   G    0.2022
   2231 O3'       -12.7950    9.7960  -58.3290 O.3      70   G   -0.5246
   2232 C2'       -11.5310   10.1820  -56.2360 C.3      70   G    0.0670
   2233 O2'       -11.2000   11.4560  -56.7070 O.3      70   G   -0.6139
   2234 C1'       -11.9740   10.2300  -54.7840 C.3      70   G    0.0191
   2235 N1         -7.7690    8.2520  -52.6910 N.pl3    70   G   -0.4787
   2236 C2         -7.9500    9.4480  -53.3400 C.2      70   G    0.7657
   2237 N2         -6.8760   10.2400  -53.4470 N.pl3    70   G   -0.9672
   2238 N3         -9.0980    9.8570  -53.8540 N.2      70   G   -0.6323
   2239 C4        -10.0820    8.9630  -53.6640 C.2      70   G    0.1222
   2240 C5         -9.9990    7.7500  -53.0440 C.2      70   G    0.1744
   2241 C6         -8.7850    7.3310  -52.4920 C.2      70   G    0.4770
   2242 O6         -8.5630    6.2640  -51.9200 O.2      70   G   -0.5597
   2243 N7        -11.2110    7.1130  -53.0460 N.2      70   G   -0.5709
   2244 C8        -12.0120    7.9430  -53.6630 C.2      70   G    0.1374
   2245 N9        -11.3940    9.1030  -54.0580 N.pl3    70   G    0.0492
   2246 OP1       -16.8700    6.9170  -56.7670 O.co2    70   G   -0.7760
   2247 OP2       -15.3310    5.8420  -54.9750 O.co2    70   G   -0.7760
   2248 H5'       -15.9401    9.9328  -55.5762 H        70   G    0.0679
   2249 H5''      -15.5322    9.4317  -57.2409 H        70   G    0.0679
   2250 H4'       -14.0155   11.2455  -56.4406 H        70   G    0.1174
   2251 H3'       -12.7479    8.4933  -56.7194 H        70   G    0.0615
   2252 H2'       -10.6744    9.5159  -56.3391 H        70   G    0.0972
   2253 H1'       -11.6336   11.1625  -54.3338 H        70   G    0.2006
   2254 H1         -6.8477    8.0320  -52.3404 H        70   G    0.3424
   2255 H8        -13.0564    7.7359  -53.8437 H        70   G    0.1640
   2256 H21        -6.9510   11.1322  -53.9143 H        70   G    0.4364
   2257 H22        -5.9907    9.9453  -53.0604 H        70   G    0.4364
   2258 HO2'      -10.9135   11.3952  -57.6212 H        70   G    0.4186
   2259 P         -11.7550    9.0080  -59.2620 P.3      71   G    1.1662
   2260 C5'        -9.2350    9.4530  -59.5600 C.3      71   G    0.0558
   2261 O5'       -10.3800    9.6710  -58.7890 O.3      71   G   -0.4989
   2262 C4'        -7.9650    9.7770  -58.7920 C.3      71   G    0.1065
   2263 O4'        -8.1760    9.7450  -57.3610 O.3      71   G   -0.3548
   2264 C3'        -6.8300    8.8050  -59.0460 C.3      71   G    0.2022
   2265 O3'        -6.0270    9.3050  -60.1050 O.3      71   G   -0.5246
   2266 C2'        -6.0980    8.7190  -57.7160 C.3      71   G    0.0670
   2267 O2'        -5.0880    9.6910  -57.6680 O.3      71   G   -0.6139
   2268 C1'        -7.2020    8.9630  -56.6950 C.3      71   G    0.0191
   2269 N1         -7.2390    4.6850  -53.7790 N.pl3    71   G   -0.4787
   2270 C2         -6.2030    5.5710  -53.9490 C.2      71   G    0.7657
   2271 N2         -5.0750    5.3110  -53.2820 N.pl3    71   G   -0.9672
   2272 N3         -6.2810    6.6500  -54.7200 N.2      71   G   -0.6323
   2273 C4         -7.4880    6.7720  -55.3270 C.2      71   G    0.1222
   2274 C5         -8.5680    5.9280  -55.2020 C.2      71   G    0.1744
   2275 C6         -8.4900    4.7890  -54.3880 C.2      71   G    0.4770
   2276 O6         -9.3820    3.9520  -54.1850 O.2      71   G   -0.5597
   2277 N7         -9.6360    6.3660  -55.9400 N.2      71   G   -0.5709
   2278 C8         -9.2000    7.4430  -56.5120 C.2      71   G    0.1374
   2279 N9         -7.9060    7.7780  -56.1830 N.pl3    71   G    0.0492
   2280 OP1       -12.0040    9.3060  -60.6990 O.co2    71   G   -0.7760
   2281 OP2       -11.7230    7.6070  -58.7940 O.co2    71   G   -0.7760
   2282 H5'        -9.2072    8.4058  -59.8611 H        71   G    0.0679
   2283 H5''       -9.2815   10.0787  -60.4513 H        71   G    0.0679
   2284 H4'        -7.6351   10.7773  -59.0723 H        71   G    0.1174
   2285 H3'        -7.2309    7.8273  -59.3134 H        71   G    0.0615
   2286 H2'        -5.6724    7.7245  -57.5823 H        71   G    0.0972
   2287 H1'        -6.7973    9.5305  -55.8570 H        71   G    0.2006
   2288 H1         -7.0831    3.8976  -53.1659 H        71   G    0.3424
   2289 H8         -9.8016    8.0295  -57.1906 H        71   G    0.1640
   2290 H21        -4.2831    5.9320  -53.3677 H        71   G    0.4364
   2291 H22        -5.0142    4.4935  -52.6920 H        71   G    0.4364
   2292 HO2'       -5.4638   10.5292  -57.3890 H        71   G    0.4186
   2293 P          -6.6040    9.1540  -61.5810 P.3      72   A    1.1662
   2294 C5'        -4.6470    8.9540  -63.3330 C.3      72   A    0.0558
   2295 O5'        -5.4190    8.3680  -62.3110 O.3      72   A   -0.4989
   2296 C4'        -3.2490    8.3860  -63.3460 C.3      72   A    0.1065
   2297 O4'        -2.6770    8.4800  -62.0280 O.3      72   A   -0.3548
   2298 C3'        -3.1940    6.9300  -63.7220 C.3      72   A    0.2022
   2299 O3'        -3.0640    6.8370  -65.1260 O.3      72   A   -0.5246
   2300 C2'        -1.9780    6.4260  -62.9520 C.3      72   A    0.0670
   2301 O2'        -0.7590    6.5470  -63.6510 O.3      72   A   -0.6139
   2302 C1'        -1.9720    7.3010  -61.7040 C.3      72   A    0.0394
   2303 N1         -1.4620    4.9150  -57.1200 N.2      72   A   -0.7615
   2304 C2         -0.5600    5.4250  -57.9700 C.2      72   A    0.5875
   2305 N3         -0.7490    6.0370  -59.1560 N.2      72   A   -0.6997
   2306 C4         -2.0500    6.1240  -59.4500 C.2      72   A    0.3053
   2307 C5         -3.0920    5.6420  -58.6770 C.2      72   A    0.0515
   2308 C6         -2.7630    5.0180  -57.4600 C.2      72   A    0.7009
   2309 N6         -3.6940    4.5210  -56.6420 N.pl3    72   A   -0.9019
   2310 N7         -4.3050    5.8760  -59.2820 N.2      72   A   -0.6073
   2311 C8         -3.9720    6.4880  -60.3950 C.2      72   A    0.2006
   2312 N9         -2.6280    6.6750  -60.5630 N.pl3    72   A   -0.0251
   2313 OP1        -6.7270   10.5190  -62.1160 O.co2    72   A   -0.7760
   2314 OP2        -7.8230    8.3160  -61.5970 O.co2    72   A   -0.7760
   2315 H5'        -4.5932   10.0299  -63.1669 H        72   A    0.0679
   2316 H5''       -5.1212    8.7627  -64.2956 H        72   A    0.0679
   2317 H4'        -2.6370    8.9585  -64.0430 H        72   A    0.1174
   2318 H3'        -4.0956    6.4163  -63.3883 H        72   A    0.0615
   2319 H2'        -2.1328    5.3854  -62.6668 H        72   A    0.0972
   2320 H1'        -0.9446    7.5521  -61.4405 H        72   A    0.2007
   2321 H2          0.4700    5.3319  -57.6589 H        72   A    0.0473
   2322 H8         -4.7016    6.8174  -61.1200 H        72   A    0.1553
   2323 H61        -3.2920    3.8291  -56.0258 H        72   A    0.4115
   2324 H62        -4.5436    4.1150  -57.0073 H        72   A    0.4115
   2325 HO2'       -0.0352    6.2768  -63.0812 H        72   A    0.4186
   2326 P          -3.9070    5.7510  -65.9340 P.3      73   G    1.1662
   2327 C5'        -2.2180    3.9040  -65.1070 C.3      73   G    0.0558
   2328 O5'        -3.5300    4.4230  -65.1200 O.3      73   G   -0.4989
   2329 C4'        -2.1440    3.0120  -66.3170 C.3      73   G    0.1065
   2330 O4'        -0.8200    2.4680  -66.4790 O.3      73   G   -0.3548
   2331 C3'        -3.0500    1.8050  -66.2550 C.3      73   G    0.2022
   2332 O3'        -3.3510    1.3920  -67.5830 O.3      73   G   -0.5246
   2333 C2'        -2.1600    0.7990  -65.5560 C.3      73   G    0.0670
   2334 O2'        -2.6590   -0.4820  -65.8450 O.3      73   G   -0.6139
   2335 C1'        -0.8170    1.0840  -66.2350 C.3      73   G    0.0191
   2336 N1          4.1760    1.1240  -66.8700 N.pl3    73   G   -0.4787
   2337 C2          3.1560    1.2900  -67.7750 C.2      73   G    0.7657
   2338 N2          3.5170    1.5070  -69.0400 N.pl3    73   G   -0.9672
   2339 N3          1.8700    1.2590  -67.4660 N.2      73   G   -0.6323
   2340 C4          1.6690    1.0240  -66.1470 C.2      73   G    0.1222
   2341 C5          2.6020    0.8240  -65.1670 C.2      73   G    0.1744
   2342 C6          3.9710    0.8610  -65.5160 C.2      73   G    0.4770
   2343 O6          4.9380    0.7140  -64.7650 O.2      73   G   -0.5597
   2344 N7          1.9890    0.6130  -63.9450 N.2      73   G   -0.5709
   2345 C8          0.7130    0.6910  -64.2130 C.2      73   G    0.1374
   2346 N9          0.4510    0.9210  -65.5360 N.pl3    73   G    0.0492
   2347 OP1        -3.3750    5.7060  -67.3050 O.co2    73   G   -0.7760
   2348 OP2        -5.3490    5.9480  -65.7000 O.co2    73   G   -0.7760
   2349 H5'        -1.4864    4.7088  -65.1784 H        73   G    0.0679
   2350 H5''       -2.0516    3.3230  -64.1999 H        73   G    0.0679
   2351 H4'        -2.3956    3.5966  -67.2019 H        73   G    0.1174
   2352 H3'        -3.9544    2.0093  -65.6820 H        73   G    0.0615
   2353 H2'        -2.1143    0.9801  -64.4821 H        73   G    0.0972
   2354 H1'        -0.7746    0.5516  -67.1852 H        73   G    0.2006
   2355 H1          5.1266    1.1964  -67.2036 H        73   G    0.3424
   2356 H8         -0.0585    0.5845  -63.4647 H        73   G    0.1640
   2357 H21         2.8118    1.6410  -69.7505 H        73   G    0.4364
   2358 H22         4.4957    1.5373  -69.2878 H        73   G    0.4364
   2359 HO2'       -2.1878   -1.1349  -65.3223 H        73   G    0.4186
   2360 P          -4.7690    0.7590  -67.9600 P.3      74   U    1.1662
   2361 C5'        -3.3500   -1.4190  -68.6590 C.3      74   U    0.0558
   2362 O5'        -4.4180   -0.4870  -68.9120 O.3      74   U   -0.4989
   2363 C4'        -3.6820   -2.5490  -67.6670 C.3      74   U    0.1065
   2364 O4'        -5.0860   -2.4900  -67.2750 O.3      74   U   -0.3548
   2365 C3'        -3.4700   -3.9930  -68.1520 C.3      74   U    0.2022
   2366 O3'        -2.1680   -4.5080  -67.8800 O.3      74   U   -0.5246
   2367 C2'        -4.4740   -4.7740  -67.3120 C.3      74   U    0.0670
   2368 O2'        -3.9500   -5.0990  -66.0290 O.3      74   U   -0.6139
   2369 C1'        -5.6490   -3.7970  -67.2120 C.3      74   U    0.0674
   2370 N1         -6.7700   -4.0030  -68.2490 N.pl3    74   U    0.0418
   2371 C2         -6.7550   -3.4370  -69.5340 C.2      74   U    0.4687
   2372 O2         -5.8680   -2.7290  -69.9920 O.2      74   U   -0.5477
   2373 N3         -7.8540   -3.7330  -70.3140 N.pl3    74   U   -0.3549
   2374 C4         -8.9460   -4.5160  -69.9610 C.2      74   U    0.5952
   2375 O4         -9.8580   -4.6940  -70.7690 O.2      74   U   -0.5761
   2376 C5         -8.8980   -5.0670  -68.6260 C.2      74   U   -0.3635
   2377 C6         -7.8400   -4.7950  -67.8440 C.2      74   U   -0.1126
   2378 OP1        -5.5410    1.6910  -68.8300 O.co2    74   U   -0.7760
   2379 OP2        -5.3060    0.2950  -66.6510 O.co2    74   U   -0.7760
   2380 H5'        -2.5031   -0.8601  -68.2610 H        74   U    0.0679
   2381 H5''       -3.0523   -1.8681  -69.6065 H        74   U    0.0679
   2382 H4'        -3.0761   -2.4014  -66.7730 H        74   U    0.1174
   2383 H3'        -3.7048   -4.0810  -69.2128 H        74   U    0.0615
   2384 H2'        -4.7800   -5.6799  -67.8352 H        74   U    0.0972
   2385 H1'        -6.0913   -3.9162  -66.2229 H        74   U    0.1824
   2386 H3         -7.8659   -3.3372  -71.2431 H        74   U    0.3154
   2387 H5         -9.7020   -5.6893  -68.2617 H        74   U    0.1811
   2388 H6         -7.8188   -5.2131  -66.8485 H        74   U    0.2188
   2389 HO2'       -4.6071   -5.5889  -65.5292 H        74   U    0.4186
   2390 P          -0.8280   -3.8910  -68.4970 P.3      75   G    1.1662
   2391 C5'        -0.7810   -3.1900  -71.0790 C.3      75   G    0.0558
   2392 O5'        -1.2930   -3.0110  -69.7620 O.3      75   G   -0.4989
   2393 C4'         0.5670   -2.5130  -71.2820 C.3      75   G    0.1065
   2394 O4'         1.0500   -1.7710  -70.1300 O.3      75   G   -0.3548
   2395 C3'         1.7350   -3.4570  -71.4760 C.3      75   G    0.2022
   2396 O3'         1.6010   -4.2530  -72.6680 O.3      75   G   -0.5246
   2397 C2'         2.8870   -2.4470  -71.4720 C.3      75   G    0.0670
   2398 O2'         3.0600   -1.7120  -72.6760 O.3      75   G   -0.6139
   2399 C1'         2.4420   -1.5540  -70.3090 C.3      75   G    0.0191
   2400 N1          6.9870   -2.1430  -68.1200 N.pl3    75   G   -0.4787
   2401 C2          6.6700   -1.8920  -69.4410 C.2      75   G    0.7657
   2402 N2          7.7030   -1.8000  -70.2940 N.pl3    75   G   -0.9672
   2403 N3          5.4270   -1.7630  -69.8940 N.2      75   G   -0.6323
   2404 C4          4.5050   -1.8860  -68.9020 C.2      75   G    0.1222
   2405 C5          4.7120   -2.1130  -67.5570 C.2      75   G    0.1744
   2406 C6          6.0400   -2.2410  -67.0920 C.2      75   G    0.4770
   2407 O6          6.4100   -2.4530  -65.9340 O.2      75   G   -0.5597
   2408 N7          3.5160   -2.1730  -66.8620 N.2      75   G   -0.5709
   2409 C8          2.6200   -1.9800  -67.7910 C.2      75   G    0.1374
   2410 N9          3.1480   -1.8070  -69.0560 N.pl3    75   G    0.0492
   2411 OP1        -0.0290   -5.0290  -69.0200 O.co2    75   G   -0.7760
   2412 OP2        -0.2720   -3.0070  -67.4430 O.co2    75   G   -0.7760
   2413 H5'        -1.4926   -2.7699  -71.7898 H        75   G    0.0679
   2414 H5''       -0.6738   -4.2569  -71.2747 H        75   G    0.0679
   2415 H4'         0.5042   -1.8417  -72.1385 H        75   G    0.1174
   2416 H3'         1.8218   -4.1117  -70.6089 H        75   G    0.0615
   2417 H2'         3.8176   -2.9518  -71.2126 H        75   G    0.0972
   2418 H1'         2.5977   -0.5128  -70.5913 H        75   G    0.2006
   2419 H1          7.9608   -2.2632  -67.8806 H        75   G    0.3424
   2420 H8          1.5593   -1.9575  -67.5888 H        75   G    0.1640
   2421 H21         7.5344   -1.6256  -71.2744 H        75   G    0.4364
   2422 H22         8.6486   -1.9052  -69.9552 H        75   G    0.4364
   2423 HO2'        3.3379   -2.3061  -73.3770 H        75   G    0.4186
   2424 P           1.7470   -5.8560  -72.5840 P.3      76   U    1.1662
   2425 C5'         3.9140   -5.5680  -74.0700 C.3      76   U    0.0558
   2426 O5'         3.3170   -6.0770  -72.8620 O.3      76   U   -0.4989
   2427 C4'         5.4260   -5.4090  -73.9800 C.3      76   U    0.1065
   2428 O4'         5.7900   -4.3880  -73.0250 O.3      76   U   -0.3548
   2429 C3'         6.1990   -6.6180  -73.4900 C.3      76   U    0.2022
   2430 O3'         6.3540   -7.5110  -74.5710 O.3      76   U   -0.5246
   2431 C2'         7.4970   -5.9810  -73.0060 C.3      76   U    0.0670
   2432 O2'         8.3490   -5.5390  -74.0400 O.3      76   U   -0.6139
   2433 C1'         6.9100   -4.8040  -72.2590 C.3      76   U    0.0674
   2434 N1          6.4790   -5.0670  -70.8400 N.pl3    76   U    0.0418
   2435 C2          7.4430   -5.1700  -69.8700 C.2      76   U    0.4687
   2436 O2          8.6310   -5.0980  -70.1250 O.2      76   U   -0.5477
   2437 N3          6.9830   -5.3950  -68.5970 N.pl3    76   U   -0.3549
   2438 C4          5.6680   -5.4880  -68.2110 C.2      76   U    0.5952
   2439 O4          5.4070   -5.6880  -67.0400 O.2      76   U   -0.5761
   2440 C5          4.7080   -5.3640  -69.2610 C.2      76   U   -0.3635
   2441 C6          5.1440   -5.1590  -70.5050 C.2      76   U   -0.1126
   2442 OP1         0.9840   -6.4060  -73.7350 O.co2    76   U   -0.7760
   2443 OP2         1.4050   -6.3110  -71.2130 O.co2    76   U   -0.7760
   2444 H5'         3.4770   -4.5932  -74.2865 H        76   U    0.0679
   2445 H5''        3.6807   -6.2472  -74.8900 H        76   U    0.0679
   2446 H4'         5.8071   -5.1234  -74.9604 H        76   U    0.1174
   2447 H3'         5.6759   -7.1004  -72.6643 H        76   U    0.0615
   2448 H2'         8.0263   -6.6478  -72.3253 H        76   U    0.0972
   2449 H1'         7.6435   -3.9977  -72.2535 H        76   U    0.1824
   2450 H3          7.6792   -5.5027  -67.8732 H        76   U    0.3154
   2451 H5          3.6507   -5.4347  -69.0522 H        76   U    0.1811
   2452 H6          4.4119   -5.0597  -71.2928 H        76   U    0.2188
   2453 HO2'        8.7119   -6.2979  -74.5026 H        76   U    0.4186
   2454 P           6.0860   -9.0750  -74.3790 P.3      77   C    1.1662
   2455 C5'         8.7370   -9.3790  -74.4580 C.3      77   C    0.0558
   2456 O5'         7.4960   -9.5140  -73.7460 O.3      77   C   -0.4989
   2457 C4'         9.9130   -9.3990  -73.4970 C.3      77   C    0.1065
   2458 O4'         9.8120   -8.3030  -72.5460 O.3      77   C   -0.3548
   2459 C3'        10.0090  -10.6100  -72.5820 C.3      77   C    0.2022
   2460 O3'        10.5390  -11.7200  -73.2620 O.3      77   C   -0.6541
   2461 C2'        10.9020  -10.0510  -71.4680 C.3      77   C    0.0670
   2462 O2'        12.2450   -9.7890  -71.8330 O.3      77   C   -0.6139
   2463 C1'        10.1820   -8.7350  -71.2390 C.3      77   C    0.0066
   2464 N1          8.9800   -8.7960  -70.3200 N.pl3    77   C   -0.0484
   2465 C2          9.1920   -8.8040  -68.9440 C.2      77   C    0.7538
   2466 O2         10.3490   -8.7840  -68.5310 O.2      77   C   -0.6252
   2467 N3          8.1360   -8.8330  -68.0970 N.2      77   C   -0.7584
   2468 C4          6.9000   -8.8590  -68.5800 C.2      77   C    0.8185
   2469 N4          5.8930   -8.8910  -67.7110 N.pl3    77   C   -0.9530
   2470 C5          6.6440   -8.8560  -69.9790 C.2      77   C   -0.5215
   2471 C6          7.6980   -8.8200  -70.8010 C.2      77   C    0.0053
   2472 OP1         5.9910   -9.6830  -75.7360 O.co2    77   C   -0.7760
   2473 OP2         5.0100   -9.2830  -73.3690 O.co2    77   C   -0.7760
   2474 H5'         8.7360   -8.4346  -75.0023 H        77   C    0.0679
   2475 H5''        8.8369  -10.2019  -75.1658 H        77   C    0.0679
   2476 H4'        10.8402   -9.3007  -74.0616 H        77   C    0.1174
   2477 H3'         9.0245  -10.8536  -72.1827 H        77   C    0.0615
   2478 H2'        10.8556  -10.6801  -70.5791 H        77   C    0.0972
   2479 H1'        10.8941   -8.0194  -70.8281 H        77   C    0.2029
   2480 H5          5.6351   -8.8819  -70.3634 H        77   C    0.1928
   2481 H6          7.5346   -8.8096  -71.8685 H        77   C    0.1958
   2482 H41         4.9395   -8.9124  -68.0435 H        77   C    0.4234
   2483 H42         6.0820   -8.8939  -66.7189 H        77   C    0.4234
   2484 HO3'       10.5888  -12.4688  -72.6633 H        77   C    0.4376
   2485 HO2'       12.7051  -10.6188  -71.9791 H        77   C    0.4186
@<TRIPOS>BOND
     1    1    2 1
     2    1    3 1
     3    3    4 1
     4    3    5 1
     5    4    9 1
     6    5    6 1
     7    5    7 1
     8    6   33 1
     9    7    8 1
    10    7    9 1
    11    9   20 1
    12   10   11 1
    13   10   16 1
    14   11   12 1
    15   11   13 2
    16   13   14 1
    17   14   15 2
    18   14   20 1
    19   15   16 1
    20   15   18 1
    21   16   17 2
    22   18   19 2
    23   19   20 1
    24   33   35 1
    25   33   54 2
    26   33   55 1
    27   34   35 1
    28   34   36 1
    29   36   37 1
    30   36   38 1
    31   37   42 1
    32   38   39 1
    33   38   40 1
    34   39   67 1
    35   40   41 1
    36   40   42 1
    37   42   53 1
    38   43   44 1
    39   43   49 1
    40   44   45 1
    41   44   46 2
    42   46   47 1
    43   47   48 2
    44   47   53 1
    45   48   49 1
    46   48   51 1
    47   49   50 2
    48   51   52 2
    49   52   53 1
    50   67   69 1
    51   67   88 2
    52   67   89 1
    53   68   69 1
    54   68   70 1
    55   70   71 1
    56   70   72 1
    57   71   76 1
    58   72   73 1
    59   72   74 1
    60   73  101 1
    61   74   75 1
    62   74   76 1
    63   76   87 1
    64   77   78 1
    65   77   83 1
    66   78   79 1
    67   78   80 2
    68   80   81 1
    69   81   82 2
    70   81   87 1
    71   82   83 1
    72   82   85 1
    73   83   84 2
    74   85   86 2
    75   86   87 1
    76  101  103 1
    77  101  121 2
    78  101  122 1
    79  102  103 1
    80  102  104 1
    81  104  105 1
    82  104  106 1
    83  105  110 1
    84  106  107 1
    85  106  108 1
    86  107  134 1
    87  108  109 1
    88  108  110 1
    89  110  120 1
    90  111  112 1
    91  111  116 2
    92  112  113 2
    93  113  114 1
    94  114  115 2
    95  114  120 1
    96  115  116 1
    97  115  118 1
    98  116  117 1
    99  118  119 2
   100  119  120 1
   101  134  136 1
   102  134  152 2
   103  134  153 1
   104  135  136 1
   105  135  137 1
   106  137  138 1
   107  137  139 1
   108  138  143 1
   109  139  140 1
   110  139  141 1
   111  140  165 1
   112  141  142 1
   113  141  143 1
   114  143  144 1
   115  144  145 1
   116  144  151 1
   117  145  146 2
   118  145  147 1
   119  147  148 2
   120  148  149 1
   121  148  150 1
   122  150  151 2
   123  165  167 1
   124  165  183 2
   125  165  184 1
   126  166  167 1
   127  166  168 1
   128  168  169 1
   129  168  170 1
   130  169  174 1
   131  170  171 1
   132  170  172 1
   133  171  196 1
   134  172  173 1
   135  172  174 1
   136  174  175 1
   137  175  176 1
   138  175  182 1
   139  176  177 2
   140  176  178 1
   141  178  179 2
   142  179  180 1
   143  179  181 1
   144  181  182 2
   145  196  198 1
   146  196  216 2
   147  196  217 1
   148  197  198 1
   149  197  199 1
   150  199  200 1
   151  199  201 1
   152  200  205 1
   153  201  202 1
   154  201  203 1
   155  202  229 1
   156  203  204 1
   157  203  205 1
   158  205  215 1
   159  206  207 1
   160  206  211 2
   161  207  208 2
   162  208  209 1
   163  209  210 2
   164  209  215 1
   165  210  211 1
   166  210  213 1
   167  211  212 1
   168  213  214 2
   169  214  215 1
   170  229  231 1
   171  229  250 2
   172  229  251 1
   173  230  231 1
   174  230  232 1
   175  232  233 1
   176  232  234 1
   177  233  238 1
   178  234  235 1
   179  234  236 1
   180  235  263 1
   181  236  237 1
   182  236  238 1
   183  238  249 1
   184  239  240 1
   185  239  245 1
   186  240  241 1
   187  240  242 2
   188  242  243 1
   189  243  244 2
   190  243  249 1
   191  244  245 1
   192  244  247 1
   193  245  246 2
   194  247  248 2
   195  248  249 1
   196  263  265 1
   197  263  284 2
   198  263  285 1
   199  264  265 1
   200  264  266 1
   201  266  267 1
   202  266  268 1
   203  267  272 1
   204  268  269 1
   205  268  270 1
   206  269  297 1
   207  270  271 1
   208  270  272 1
   209  272  283 1
   210  273  274 1
   211  273  279 1
   212  274  275 1
   213  274  276 2
   214  276  277 1
   215  277  278 2
   216  277  283 1
   217  278  279 1
   218  278  281 1
   219  279  280 2
   220  281  282 2
   221  282  283 1
   222  297  299 1
   223  297  318 2
   224  297  319 1
   225  298  299 1
   226  298  300 1
   227  300  301 1
   228  300  302 1
   229  301  306 1
   230  302  303 1
   231  302  304 1
   232  303  331 1
   233  304  305 1
   234  304  306 1
   235  306  317 1
   236  307  308 1
   237  307  313 1
   238  308  309 1
   239  308  310 2
   240  310  311 1
   241  311  312 2
   242  311  317 1
   243  312  313 1
   244  312  315 1
   245  313  314 2
   246  315  316 2
   247  316  317 1
   248  331  333 1
   249  331  352 2
   250  331  353 1
   251  332  333 1
   252  332  334 1
   253  334  335 1
   254  334  336 1
   255  335  340 1
   256  336  337 1
   257  336  338 1
   258  337  365 1
   259  338  339 1
   260  338  340 1
   261  340  351 1
   262  341  342 1
   263  341  347 1
   264  342  343 1
   265  342  344 2
   266  344  345 1
   267  345  346 2
   268  345  351 1
   269  346  347 1
   270  346  349 1
   271  347  348 2
   272  349  350 2
   273  350  351 1
   274  365  367 1
   275  365  383 2
   276  365  384 1
   277  366  367 1
   278  366  368 1
   279  368  369 1
   280  368  370 1
   281  369  374 1
   282  370  371 1
   283  370  372 1
   284  371  395 1
   285  372  373 1
   286  372  374 1
   287  374  375 1
   288  375  376 1
   289  375  382 1
   290  376  377 2
   291  376  378 1
   292  378  379 1
   293  379  380 2
   294  379  381 1
   295  381  382 2
   296  395  397 1
   297  395  416 2
   298  395  417 1
   299  396  397 1
   300  396  398 1
   301  398  399 1
   302  398  400 1
   303  399  404 1
   304  400  401 1
   305  400  402 1
   306  401  429 1
   307  402  403 1
   308  402  404 1
   309  404  415 1
   310  405  406 1
   311  405  411 1
   312  406  407 1
   313  406  408 2
   314  408  409 1
   315  409  410 2
   316  409  415 1
   317  410  411 1
   318  410  413 1
   319  411  412 2
   320  413  414 2
   321  414  415 1
   322  429  431 1
   323  429  447 2
   324  429  448 1
   325  430  431 1
   326  430  432 1
   327  432  433 1
   328  432  434 1
   329  433  438 1
   330  434  435 1
   331  434  436 1
   332  435  460 1
   333  436  437 1
   334  436  438 1
   335  438  439 1
   336  439  440 1
   337  439  446 1
   338  440  441 2
   339  440  442 1
   340  442  443 2
   341  443  444 1
   342  443  445 1
   343  445  446 2
   344  460  462 1
   345  460  478 2
   346  460  479 1
   347  461  462 1
   348  461  463 1
   349  463  464 1
   350  463  465 1
   351  464  469 1
   352  465  466 1
   353  465  467 1
   354  466  490 1
   355  467  468 1
   356  467  469 1
   357  469  470 1
   358  470  471 1
   359  470  477 1
   360  471  472 2
   361  471  473 1
   362  473  474 1
   363  474  475 2
   364  474  476 1
   365  476  477 2
   366  490  492 1
   367  490  508 2
   368  490  509 1
   369  491  492 1
   370  491  493 1
   371  493  494 1
   372  493  495 1
   373  494  499 1
   374  495  496 1
   375  495  497 1
   376  496  520 1
   377  497  498 1
   378  497  499 1
   379  499  500 1
   380  500  501 1
   381  500  507 1
   382  501  502 2
   383  501  503 1
   384  503  504 1
   385  504  505 2
   386  504  506 1
   387  506  507 2
   388  520  522 1
   389  520  541 2
   390  520  542 1
   391  521  522 1
   392  521  523 1
   393  523  524 1
   394  523  525 1
   395  524  529 1
   396  525  526 1
   397  525  527 1
   398  526  554 1
   399  527  528 1
   400  527  529 1
   401  529  540 1
   402  530  531 1
   403  530  536 1
   404  531  532 1
   405  531  533 2
   406  533  534 1
   407  534  535 2
   408  534  540 1
   409  535  536 1
   410  535  538 1
   411  536  537 2
   412  538  539 2
   413  539  540 1
   414  554  556 1
   415  554  572 2
   416  554  573 1
   417  555  556 1
   418  555  557 1
   419  557  558 1
   420  557  559 1
   421  558  563 1
   422  559  560 1
   423  559  561 1
   424  560  584 1
   425  561  562 1
   426  561  563 1
   427  563  564 1
   428  564  565 1
   429  564  571 1
   430  565  566 2
   431  565  567 1
   432  567  568 1
   433  568  569 2
   434  568  570 1
   435  570  571 2
   436  584  586 1
   437  584  602 2
   438  584  603 1
   439  585  586 1
   440  585  587 1
   441  587  588 1
   442  587  589 1
   443  588  593 1
   444  589  590 1
   445  589  591 1
   446  590  614 1
   447  591  592 1
   448  591  593 1
   449  593  594 1
   450  594  595 1
   451  594  601 1
   452  595  596 2
   453  595  597 1
   454  597  598 1
   455  598  599 2
   456  598  600 1
   457  600  601 2
   458  614  616 1
   459  614  632 2
   460  614  633 1
   461  615  616 1
   462  615  617 1
   463  617  618 1
   464  617  619 1
   465  618  623 1
   466  619  620 1
   467  619  621 1
   468  620  645 1
   469  621  622 1
   470  621  623 1
   471  623  624 1
   472  624  625 1
   473  624  631 1
   474  625  626 2
   475  625  627 1
   476  627  628 2
   477  628  629 1
   478  628  630 1
   479  630  631 2
   480  645  647 1
   481  645  665 2
   482  645  666 1
   483  646  647 1
   484  646  648 1
   485  648  649 1
   486  648  650 1
   487  649  654 1
   488  650  651 1
   489  650  652 1
   490  651  678 1
   491  652  653 1
   492  652  654 1
   493  654  664 1
   494  655  656 1
   495  655  660 2
   496  656  657 2
   497  657  658 1
   498  658  659 2
   499  658  664 1
   500  659  660 1
   501  659  662 1
   502  660  661 1
   503  662  663 2
   504  663  664 1
   505  678  680 1
   506  678  696 2
   507  678  697 1
   508  679  680 1
   509  679  681 1
   510  681  682 1
   511  681  683 1
   512  682  687 1
   513  683  684 1
   514  683  685 1
   515  684  709 1
   516  685  686 1
   517  685  687 1
   518  687  688 1
   519  688  689 1
   520  688  695 1
   521  689  690 2
   522  689  691 1
   523  691  692 2
   524  692  693 1
   525  692  694 1
   526  694  695 2
   527  709  711 1
   528  709  729 2
   529  709  730 1
   530  710  711 1
   531  710  712 1
   532  712  713 1
   533  712  714 1
   534  713  718 1
   535  714  715 1
   536  714  716 1
   537  715  742 1
   538  716  717 1
   539  716  718 1
   540  718  728 1
   541  719  720 1
   542  719  724 2
   543  720  721 2
   544  721  722 1
   545  722  723 2
   546  722  728 1
   547  723  724 1
   548  723  726 1
   549  724  725 1
   550  726  727 2
   551  727  728 1
   552  742  744 1
   553  742  763 2
   554  742  764 1
   555  743  744 1
   556  743  745 1
   557  745  746 1
   558  745  747 1
   559  746  751 1
   560  747  748 1
   561  747  749 1
   562  748  776 1
   563  749  750 1
   564  749  751 1
   565  751  762 1
   566  752  753 1
   567  752  758 1
   568  753  754 1
   569  753  755 2
   570  755  756 1
   571  756  757 2
   572  756  762 1
   573  757  758 1
   574  757  760 1
   575  758  759 2
   576  760  761 2
   577  761  762 1
   578  776  778 1
   579  776  797 2
   580  776  798 1
   581  777  778 1
   582  777  779 1
   583  779  780 1
   584  779  781 1
   585  780  785 1
   586  781  782 1
   587  781  783 1
   588  782  810 1
   589  783  784 1
   590  783  785 1
   591  785  796 1
   592  786  787 1
   593  786  792 1
   594  787  788 1
   595  787  789 2
   596  789  790 1
   597  790  791 2
   598  790  796 1
   599  791  792 1
   600  791  794 1
   601  792  793 2
   602  794  795 2
   603  795  796 1
   604  810  812 1
   605  810  828 2
   606  810  829 1
   607  811  812 1
   608  811  813 1
   609  813  814 1
   610  813  815 1
   611  814  819 1
   612  815  816 1
   613  815  817 1
   614  816  841 1
   615  817  818 1
   616  817  819 1
   617  819  820 1
   618  820  821 1
   619  820  827 1
   620  821  822 2
   621  821  823 1
   622  823  824 2
   623  824  825 1
   624  824  826 1
   625  826  827 2
   626  841  843 1
   627  841  859 2
   628  841  860 1
   629  842  843 1
   630  842  844 1
   631  844  845 1
   632  844  846 1
   633  845  850 1
   634  846  847 1
   635  846  848 1
   636  847  871 1
   637  848  849 1
   638  848  850 1
   639  850  851 1
   640  851  852 1
   641  851  858 1
   642  852  853 2
   643  852  854 1
   644  854  855 1
   645  855  856 2
   646  855  857 1
   647  857  858 2
   648  871  873 1
   649  871  892 2
   650  871  893 1
   651  872  873 1
   652  872  874 1
   653  874  875 1
   654  874  876 1
   655  875  880 1
   656  876  877 1
   657  876  878 1
   658  877  905 1
   659  878  879 1
   660  878  880 1
   661  880  891 1
   662  881  882 1
   663  881  887 1
   664  882  883 1
   665  882  884 2
   666  884  885 1
   667  885  886 2
   668  885  891 1
   669  886  887 1
   670  886  889 1
   671  887  888 2
   672  889  890 2
   673  890  891 1
   674  905  907 1
   675  905  925 2
   676  905  926 1
   677  906  907 1
   678  906  908 1
   679  908  909 1
   680  908  910 1
   681  909  914 1
   682  910  911 1
   683  910  912 1
   684  911  938 1
   685  912  913 1
   686  912  914 1
   687  914  924 1
   688  915  916 1
   689  915  920 2
   690  916  917 2
   691  917  918 1
   692  918  919 2
   693  918  924 1
   694  919  920 1
   695  919  922 1
   696  920  921 1
   697  922  923 2
   698  923  924 1
   699  938  940 1
   700  938  959 2
   701  938  960 1
   702  939  940 1
   703  939  941 1
   704  941  942 1
   705  941  943 1
   706  942  947 1
   707  943  944 1
   708  943  945 1
   709  944  972 1
   710  945  946 1
   711  945  947 1
   712  947  958 1
   713  948  949 1
   714  948  954 1
   715  949  950 1
   716  949  951 2
   717  951  952 1
   718  952  953 2
   719  952  958 1
   720  953  954 1
   721  953  956 1
   722  954  955 2
   723  956  957 2
   724  957  958 1
   725  972  974 1
   726  972  992 2
   727  972  993 1
   728  973  974 1
   729  973  975 1
   730  975  976 1
   731  975  977 1
   732  976  981 1
   733  977  978 1
   734  977  979 1
   735  978 1005 1
   736  979  980 1
   737  979  981 1
   738  981  991 1
   739  982  983 1
   740  982  987 2
   741  983  984 2
   742  984  985 1
   743  985  986 2
   744  985  991 1
   745  986  987 1
   746  986  989 1
   747  987  988 1
   748  989  990 2
   749  990  991 1
   750 1005 1007 1
   751 1005 1025 2
   752 1005 1026 1
   753 1006 1007 1
   754 1006 1008 1
   755 1008 1009 1
   756 1008 1010 1
   757 1009 1014 1
   758 1010 1011 1
   759 1010 1012 1
   760 1011 1038 1
   761 1012 1013 1
   762 1012 1014 1
   763 1014 1024 1
   764 1015 1016 1
   765 1015 1020 2
   766 1016 1017 2
   767 1017 1018 1
   768 1018 1019 2
   769 1018 1024 1
   770 1019 1020 1
   771 1019 1022 1
   772 1020 1021 1
   773 1022 1023 2
   774 1023 1024 1
   775 1038 1040 1
   776 1038 1058 2
   777 1038 1059 1
   778 1039 1040 1
   779 1039 1041 1
   780 1041 1042 1
   781 1041 1043 1
   782 1042 1047 1
   783 1043 1044 1
   784 1043 1045 1
   785 1044 1071 1
   786 1045 1046 1
   787 1045 1047 1
   788 1047 1057 1
   789 1048 1049 1
   790 1048 1053 2
   791 1049 1050 2
   792 1050 1051 1
   793 1051 1052 2
   794 1051 1057 1
   795 1052 1053 1
   796 1052 1055 1
   797 1053 1054 1
   798 1055 1056 2
   799 1056 1057 1
   800 1071 1073 1
   801 1071 1092 2
   802 1071 1093 1
   803 1072 1073 1
   804 1072 1074 1
   805 1074 1075 1
   806 1074 1076 1
   807 1075 1080 1
   808 1076 1077 1
   809 1076 1078 1
   810 1077 1105 1
   811 1078 1079 1
   812 1078 1080 1
   813 1080 1091 1
   814 1081 1082 1
   815 1081 1087 1
   816 1082 1083 1
   817 1082 1084 2
   818 1084 1085 1
   819 1085 1086 2
   820 1085 1091 1
   821 1086 1087 1
   822 1086 1089 1
   823 1087 1088 2
   824 1089 1090 2
   825 1090 1091 1
   826 1105 1107 1
   827 1105 1123 2
   828 1105 1124 1
   829 1106 1107 1
   830 1106 1108 1
   831 1108 1109 1
   832 1108 1110 1
   833 1109 1114 1
   834 1110 1111 1
   835 1110 1112 1
   836 1111 1135 1
   837 1112 1113 1
   838 1112 1114 1
   839 1114 1115 1
   840 1115 1116 1
   841 1115 1122 1
   842 1116 1117 2
   843 1116 1118 1
   844 1118 1119 1
   845 1119 1120 2
   846 1119 1121 1
   847 1121 1122 2
   848 1135 1137 1
   849 1135 1153 2
   850 1135 1154 1
   851 1136 1137 1
   852 1136 1138 1
   853 1138 1139 1
   854 1138 1140 1
   855 1139 1144 1
   856 1140 1141 1
   857 1140 1142 1
   858 1141 1166 1
   859 1142 1143 1
   860 1142 1144 1
   861 1144 1145 1
   862 1145 1146 1
   863 1145 1152 1
   864 1146 1147 2
   865 1146 1148 1
   866 1148 1149 2
   867 1149 1150 1
   868 1149 1151 1
   869 1151 1152 2
   870 1166 1168 1
   871 1166 1184 2
   872 1166 1185 1
   873 1167 1168 1
   874 1167 1169 1
   875 1169 1170 1
   876 1169 1171 1
   877 1170 1175 1
   878 1171 1172 1
   879 1171 1173 1
   880 1172 1197 1
   881 1173 1174 1
   882 1173 1175 1
   883 1175 1176 1
   884 1176 1177 1
   885 1176 1183 1
   886 1177 1178 2
   887 1177 1179 1
   888 1179 1180 2
   889 1180 1181 1
   890 1180 1182 1
   891 1182 1183 2
   892 1197 1199 1
   893 1197 1215 2
   894 1197 1216 1
   895 1198 1199 1
   896 1198 1200 1
   897 1200 1201 1
   898 1200 1202 1
   899 1201 1206 1
   900 1202 1203 1
   901 1202 1204 1
   902 1203 1228 1
   903 1204 1205 1
   904 1204 1206 1
   905 1206 1207 1
   906 1207 1208 1
   907 1207 1214 1
   908 1208 1209 2
   909 1208 1210 1
   910 1210 1211 2
   911 1211 1212 1
   912 1211 1213 1
   913 1213 1214 2
   914 1228 1230 1
   915 1228 1246 2
   916 1228 1247 1
   917 1229 1230 1
   918 1229 1231 1
   919 1231 1232 1
   920 1231 1233 1
   921 1232 1237 1
   922 1233 1234 1
   923 1233 1235 1
   924 1234 1258 1
   925 1235 1236 1
   926 1235 1237 1
   927 1237 1238 1
   928 1238 1239 1
   929 1238 1245 1
   930 1239 1240 2
   931 1239 1241 1
   932 1241 1242 1
   933 1242 1243 2
   934 1242 1244 1
   935 1244 1245 2
   936 1258 1260 1
   937 1258 1276 2
   938 1258 1277 1
   939 1259 1260 1
   940 1259 1261 1
   941 1261 1262 1
   942 1261 1263 1
   943 1262 1267 1
   944 1263 1264 1
   945 1263 1265 1
   946 1264 1288 1
   947 1265 1266 1
   948 1265 1267 1
   949 1267 1268 1
   950 1268 1269 1
   951 1268 1275 1
   952 1269 1270 2
   953 1269 1271 1
   954 1271 1272 1
   955 1272 1273 2
   956 1272 1274 1
   957 1274 1275 2
   958 1288 1290 1
   959 1288 1306 2
   960 1288 1307 1
   961 1289 1290 1
   962 1289 1291 1
   963 1291 1292 1
   964 1291 1293 1
   965 1292 1297 1
   966 1293 1294 1
   967 1293 1295 1
   968 1294 1318 1
   969 1295 1296 1
   970 1295 1297 1
   971 1297 1298 1
   972 1298 1299 1
   973 1298 1305 1
   974 1299 1300 2
   975 1299 1301 1
   976 1301 1302 1
   977 1302 1303 2
   978 1302 1304 1
   979 1304 1305 2
   980 1318 1320 1
   981 1318 1339 2
   982 1318 1340 1
   983 1319 1320 1
   984 1319 1321 1
   985 1321 1322 1
   986 1321 1323 1
   987 1322 1327 1
   988 1323 1324 1
   989 1323 1325 1
   990 1324 1352 1
   991 1325 1326 1
   992 1325 1327 1
   993 1327 1338 1
   994 1328 1329 1
   995 1328 1334 1
   996 1329 1330 1
   997 1329 1331 2
   998 1331 1332 1
   999 1332 1333 2
  1000 1332 1338 1
  1001 1333 1334 1
  1002 1333 1336 1
  1003 1334 1335 2
  1004 1336 1337 2
  1005 1337 1338 1
  1006 1352 1354 1
  1007 1352 1372 2
  1008 1352 1373 1
  1009 1353 1354 1
  1010 1353 1355 1
  1011 1355 1356 1
  1012 1355 1357 1
  1013 1356 1361 1
  1014 1357 1358 1
  1015 1357 1359 1
  1016 1358 1385 1
  1017 1359 1360 1
  1018 1359 1361 1
  1019 1361 1371 1
  1020 1362 1363 1
  1021 1362 1367 2
  1022 1363 1364 2
  1023 1364 1365 1
  1024 1365 1366 2
  1025 1365 1371 1
  1026 1366 1367 1
  1027 1366 1369 1
  1028 1367 1368 1
  1029 1369 1370 2
  1030 1370 1371 1
  1031 1385 1387 1
  1032 1385 1405 2
  1033 1385 1406 1
  1034 1386 1387 1
  1035 1386 1388 1
  1036 1388 1389 1
  1037 1388 1390 1
  1038 1389 1394 1
  1039 1390 1391 1
  1040 1390 1392 1
  1041 1391 1418 1
  1042 1392 1393 1
  1043 1392 1394 1
  1044 1394 1404 1
  1045 1395 1396 1
  1046 1395 1400 2
  1047 1396 1397 2
  1048 1397 1398 1
  1049 1398 1399 2
  1050 1398 1404 1
  1051 1399 1400 1
  1052 1399 1402 1
  1053 1400 1401 1
  1054 1402 1403 2
  1055 1403 1404 1
  1056 1418 1420 1
  1057 1418 1436 2
  1058 1418 1437 1
  1059 1419 1420 1
  1060 1419 1421 1
  1061 1421 1422 1
  1062 1421 1423 1
  1063 1422 1427 1
  1064 1423 1424 1
  1065 1423 1425 1
  1066 1424 1449 1
  1067 1425 1426 1
  1068 1425 1427 1
  1069 1427 1428 1
  1070 1428 1429 1
  1071 1428 1435 1
  1072 1429 1430 2
  1073 1429 1431 1
  1074 1431 1432 2
  1075 1432 1433 1
  1076 1432 1434 1
  1077 1434 1435 2
  1078 1449 1451 1
  1079 1449 1467 2
  1080 1449 1468 1
  1081 1450 1451 1
  1082 1450 1452 1
  1083 1452 1453 1
  1084 1452 1454 1
  1085 1453 1458 1
  1086 1454 1455 1
  1087 1454 1456 1
  1088 1455 1480 1
  1089 1456 1457 1
  1090 1456 1458 1
  1091 1458 1459 1
  1092 1459 1460 1
  1093 1459 1466 1
  1094 1460 1461 2
  1095 1460 1462 1
  1096 1462 1463 2
  1097 1463 1464 1
  1098 1463 1465 1
  1099 1465 1466 2
  1100 1480 1482 1
  1101 1480 1498 2
  1102 1480 1499 1
  1103 1481 1482 1
  1104 1481 1483 1
  1105 1483 1484 1
  1106 1483 1485 1
  1107 1484 1489 1
  1108 1485 1486 1
  1109 1485 1487 1
  1110 1486 1510 1
  1111 1487 1488 1
  1112 1487 1489 1
  1113 1489 1490 1
  1114 1490 1491 1
  1115 1490 1497 1
  1116 1491 1492 2
  1117 1491 1493 1
  1118 1493 1494 1
  1119 1494 1495 2
  1120 1494 1496 1
  1121 1496 1497 2
  1122 1510 1512 1
  1123 1510 1531 2
  1124 1510 1532 1
  1125 1511 1512 1
  1126 1511 1513 1
  1127 1513 1514 1
  1128 1513 1515 1
  1129 1514 1519 1
  1130 1515 1516 1
  1131 1515 1517 1
  1132 1516 1544 1
  1133 1517 1518 1
  1134 1517 1519 1
  1135 1519 1530 1
  1136 1520 1521 1
  1137 1520 1526 1
  1138 1521 1522 1
  1139 1521 1523 2
  1140 1523 1524 1
  1141 1524 1525 2
  1142 1524 1530 1
  1143 1525 1526 1
  1144 1525 1528 1
  1145 1526 1527 2
  1146 1528 1529 2
  1147 1529 1530 1
  1148 1544 1546 1
  1149 1544 1564 2
  1150 1544 1565 1
  1151 1545 1546 1
  1152 1545 1547 1
  1153 1547 1548 1
  1154 1547 1549 1
  1155 1548 1553 1
  1156 1549 1550 1
  1157 1549 1551 1
  1158 1550 1577 1
  1159 1551 1552 1
  1160 1551 1553 1
  1161 1553 1563 1
  1162 1554 1555 1
  1163 1554 1559 2
  1164 1555 1556 2
  1165 1556 1557 1
  1166 1557 1558 2
  1167 1557 1563 1
  1168 1558 1559 1
  1169 1558 1561 1
  1170 1559 1560 1
  1171 1561 1562 2
  1172 1562 1563 1
  1173 1577 1579 1
  1174 1577 1597 2
  1175 1577 1598 1
  1176 1578 1579 1
  1177 1578 1580 1
  1178 1580 1581 1
  1179 1580 1582 1
  1180 1581 1586 1
  1181 1582 1583 1
  1182 1582 1584 1
  1183 1583 1610 1
  1184 1584 1585 1
  1185 1584 1586 1
  1186 1586 1596 1
  1187 1587 1588 1
  1188 1587 1592 2
  1189 1588 1589 2
  1190 1589 1590 1
  1191 1590 1591 2
  1192 1590 1596 1
  1193 1591 1592 1
  1194 1591 1594 1
  1195 1592 1593 1
  1196 1594 1595 2
  1197 1595 1596 1
  1198 1610 1612 1
  1199 1610 1628 2
  1200 1610 1629 1
  1201 1611 1612 1
  1202 1611 1613 1
  1203 1613 1614 1
  1204 1613 1615 1
  1205 1614 1619 1
  1206 1615 1616 1
  1207 1615 1617 1
  1208 1616 1641 1
  1209 1617 1618 1
  1210 1617 1619 1
  1211 1619 1620 1
  1212 1620 1621 1
  1213 1620 1627 1
  1214 1621 1622 2
  1215 1621 1623 1
  1216 1623 1624 2
  1217 1624 1625 1
  1218 1624 1626 1
  1219 1626 1627 2
  1220 1641 1643 1
  1221 1641 1661 2
  1222 1641 1662 1
  1223 1642 1643 1
  1224 1642 1644 1
  1225 1644 1645 1
  1226 1644 1646 1
  1227 1645 1650 1
  1228 1646 1647 1
  1229 1646 1648 1
  1230 1647 1674 1
  1231 1648 1649 1
  1232 1648 1650 1
  1233 1650 1660 1
  1234 1651 1652 1
  1235 1651 1656 2
  1236 1652 1653 2
  1237 1653 1654 1
  1238 1654 1655 2
  1239 1654 1660 1
  1240 1655 1656 1
  1241 1655 1658 1
  1242 1656 1657 1
  1243 1658 1659 2
  1244 1659 1660 1
  1245 1674 1676 1
  1246 1674 1695 2
  1247 1674 1696 1
  1248 1675 1676 1
  1249 1675 1677 1
  1250 1677 1678 1
  1251 1677 1679 1
  1252 1678 1683 1
  1253 1679 1680 1
  1254 1679 1681 1
  1255 1680 1708 1
  1256 1681 1682 1
  1257 1681 1683 1
  1258 1683 1694 1
  1259 1684 1685 1
  1260 1684 1690 1
  1261 1685 1686 1
  1262 1685 1687 2
  1263 1687 1688 1
  1264 1688 1689 2
  1265 1688 1694 1
  1266 1689 1690 1
  1267 1689 1692 1
  1268 1690 1691 2
  1269 1692 1693 2
  1270 1693 1694 1
  1271 1708 1710 1
  1272 1708 1729 2
  1273 1708 1730 1
  1274 1709 1710 1
  1275 1709 1711 1
  1276 1711 1712 1
  1277 1711 1713 1
  1278 1712 1717 1
  1279 1713 1714 1
  1280 1713 1715 1
  1281 1714 1742 1
  1282 1715 1716 1
  1283 1715 1717 1
  1284 1717 1728 1
  1285 1718 1719 1
  1286 1718 1724 1
  1287 1719 1720 1
  1288 1719 1721 2
  1289 1721 1722 1
  1290 1722 1723 2
  1291 1722 1728 1
  1292 1723 1724 1
  1293 1723 1726 1
  1294 1724 1725 2
  1295 1726 1727 2
  1296 1727 1728 1
  1297 1742 1744 1
  1298 1742 1763 2
  1299 1742 1764 1
  1300 1743 1744 1
  1301 1743 1745 1
  1302 1745 1746 1
  1303 1745 1747 1
  1304 1746 1751 1
  1305 1747 1748 1
  1306 1747 1749 1
  1307 1748 1776 1
  1308 1749 1750 1
  1309 1749 1751 1
  1310 1751 1762 1
  1311 1752 1753 1
  1312 1752 1758 1
  1313 1753 1754 1
  1314 1753 1755 2
  1315 1755 1756 1
  1316 1756 1757 2
  1317 1756 1762 1
  1318 1757 1758 1
  1319 1757 1760 1
  1320 1758 1759 2
  1321 1760 1761 2
  1322 1761 1762 1
  1323 1776 1778 1
  1324 1776 1794 2
  1325 1776 1795 1
  1326 1777 1778 1
  1327 1777 1779 1
  1328 1779 1780 1
  1329 1779 1781 1
  1330 1780 1785 1
  1331 1781 1782 1
  1332 1781 1783 1
  1333 1782 1806 1
  1334 1783 1784 1
  1335 1783 1785 1
  1336 1785 1786 1
  1337 1786 1787 1
  1338 1786 1793 1
  1339 1787 1788 2
  1340 1787 1789 1
  1341 1789 1790 1
  1342 1790 1791 2
  1343 1790 1792 1
  1344 1792 1793 2
  1345 1806 1808 1
  1346 1806 1826 2
  1347 1806 1827 1
  1348 1807 1808 1
  1349 1807 1809 1
  1350 1809 1810 1
  1351 1809 1811 1
  1352 1810 1815 1
  1353 1811 1812 1
  1354 1811 1813 1
  1355 1812 1839 1
  1356 1813 1814 1
  1357 1813 1815 1
  1358 1815 1825 1
  1359 1816 1817 1
  1360 1816 1821 2
  1361 1817 1818 2
  1362 1818 1819 1
  1363 1819 1820 2
  1364 1819 1825 1
  1365 1820 1821 1
  1366 1820 1823 1
  1367 1821 1822 1
  1368 1823 1824 2
  1369 1824 1825 1
  1370 1839 1841 1
  1371 1839 1859 2
  1372 1839 1860 1
  1373 1840 1841 1
  1374 1840 1842 1
  1375 1842 1843 1
  1376 1842 1844 1
  1377 1843 1848 1
  1378 1844 1845 1
  1379 1844 1846 1
  1380 1845 1872 1
  1381 1846 1847 1
  1382 1846 1848 1
  1383 1848 1858 1
  1384 1849 1850 1
  1385 1849 1854 2
  1386 1850 1851 2
  1387 1851 1852 1
  1388 1852 1853 2
  1389 1852 1858 1
  1390 1853 1854 1
  1391 1853 1856 1
  1392 1854 1855 1
  1393 1856 1857 2
  1394 1857 1858 1
  1395 1872 1874 1
  1396 1872 1890 2
  1397 1872 1891 1
  1398 1873 1874 1
  1399 1873 1875 1
  1400 1875 1876 1
  1401 1875 1877 1
  1402 1876 1881 1
  1403 1877 1878 1
  1404 1877 1879 1
  1405 1878 1902 1
  1406 1879 1880 1
  1407 1879 1881 1
  1408 1881 1882 1
  1409 1882 1883 1
  1410 1882 1889 1
  1411 1883 1884 2
  1412 1883 1885 1
  1413 1885 1886 1
  1414 1886 1887 2
  1415 1886 1888 1
  1416 1888 1889 2
  1417 1902 1904 1
  1418 1902 1923 2
  1419 1902 1924 1
  1420 1903 1904 1
  1421 1903 1905 1
  1422 1905 1906 1
  1423 1905 1907 1
  1424 1906 1911 1
  1425 1907 1908 1
  1426 1907 1909 1
  1427 1908 1936 1
  1428 1909 1910 1
  1429 1909 1911 1
  1430 1911 1922 1
  1431 1912 1913 1
  1432 1912 1918 1
  1433 1913 1914 1
  1434 1913 1915 2
  1435 1915 1916 1
  1436 1916 1917 2
  1437 1916 1922 1
  1438 1917 1918 1
  1439 1917 1920 1
  1440 1918 1919 2
  1441 1920 1921 2
  1442 1921 1922 1
  1443 1936 1938 1
  1444 1936 1954 2
  1445 1936 1955 1
  1446 1937 1938 1
  1447 1937 1939 1
  1448 1939 1940 1
  1449 1939 1941 1
  1450 1940 1945 1
  1451 1941 1942 1
  1452 1941 1943 1
  1453 1942 1967 1
  1454 1943 1944 1
  1455 1943 1945 1
  1456 1945 1946 1
  1457 1946 1947 1
  1458 1946 1953 1
  1459 1947 1948 2
  1460 1947 1949 1
  1461 1949 1950 2
  1462 1950 1951 1
  1463 1950 1952 1
  1464 1952 1953 2
  1465 1967 1969 1
  1466 1967 1985 2
  1467 1967 1986 1
  1468 1968 1969 1
  1469 1968 1970 1
  1470 1970 1971 1
  1471 1970 1972 1
  1472 1971 1976 1
  1473 1972 1973 1
  1474 1972 1974 1
  1475 1973 1998 1
  1476 1974 1975 1
  1477 1974 1976 1
  1478 1976 1977 1
  1479 1977 1978 1
  1480 1977 1984 1
  1481 1978 1979 2
  1482 1978 1980 1
  1483 1980 1981 2
  1484 1981 1982 1
  1485 1981 1983 1
  1486 1983 1984 2
  1487 1998 2000 1
  1488 1998 2016 2
  1489 1998 2017 1
  1490 1999 2000 1
  1491 1999 2001 1
  1492 2001 2002 1
  1493 2001 2003 1
  1494 2002 2007 1
  1495 2003 2004 1
  1496 2003 2005 1
  1497 2004 2028 1
  1498 2005 2006 1
  1499 2005 2007 1
  1500 2007 2008 1
  1501 2008 2009 1
  1502 2008 2015 1
  1503 2009 2010 2
  1504 2009 2011 1
  1505 2011 2012 1
  1506 2012 2013 2
  1507 2012 2014 1
  1508 2014 2015 2
  1509 2028 2030 1
  1510 2028 2049 2
  1511 2028 2050 1
  1512 2029 2030 1
  1513 2029 2031 1
  1514 2031 2032 1
  1515 2031 2033 1
  1516 2032 2037 1
  1517 2033 2034 1
  1518 2033 2035 1
  1519 2034 2062 1
  1520 2035 2036 1
  1521 2035 2037 1
  1522 2037 2048 1
  1523 2038 2039 1
  1524 2038 2044 1
  1525 2039 2040 1
  1526 2039 2041 2
  1527 2041 2042 1
  1528 2042 2043 2
  1529 2042 2048 1
  1530 2043 2044 1
  1531 2043 2046 1
  1532 2044 2045 2
  1533 2046 2047 2
  1534 2047 2048 1
  1535 2062 2064 1
  1536 2062 2080 2
  1537 2062 2081 1
  1538 2063 2064 1
  1539 2063 2065 1
  1540 2065 2066 1
  1541 2065 2067 1
  1542 2066 2071 1
  1543 2067 2068 1
  1544 2067 2069 1
  1545 2068 2093 1
  1546 2069 2070 1
  1547 2069 2071 1
  1548 2071 2072 1
  1549 2072 2073 1
  1550 2072 2079 1
  1551 2073 2074 2
  1552 2073 2075 1
  1553 2075 2076 2
  1554 2076 2077 1
  1555 2076 2078 1
  1556 2078 2079 2
  1557 2093 2095 1
  1558 2093 2114 2
  1559 2093 2115 1
  1560 2094 2095 1
  1561 2094 2096 1
  1562 2096 2097 1
  1563 2096 2098 1
  1564 2097 2102 1
  1565 2098 2099 1
  1566 2098 2100 1
  1567 2099 2127 1
  1568 2100 2101 1
  1569 2100 2102 1
  1570 2102 2113 1
  1571 2103 2104 1
  1572 2103 2109 1
  1573 2104 2105 1
  1574 2104 2106 2
  1575 2106 2107 1
  1576 2107 2108 2
  1577 2107 2113 1
  1578 2108 2109 1
  1579 2108 2111 1
  1580 2109 2110 2
  1581 2111 2112 2
  1582 2112 2113 1
  1583 2127 2129 1
  1584 2127 2145 2
  1585 2127 2146 1
  1586 2128 2129 1
  1587 2128 2130 1
  1588 2130 2131 1
  1589 2130 2132 1
  1590 2131 2136 1
  1591 2132 2133 1
  1592 2132 2134 1
  1593 2133 2158 1
  1594 2134 2135 1
  1595 2134 2136 1
  1596 2136 2137 1
  1597 2137 2138 1
  1598 2137 2144 1
  1599 2138 2139 2
  1600 2138 2140 1
  1601 2140 2141 2
  1602 2141 2142 1
  1603 2141 2143 1
  1604 2143 2144 2
  1605 2158 2160 1
  1606 2158 2178 2
  1607 2158 2179 1
  1608 2159 2160 1
  1609 2159 2161 1
  1610 2161 2162 1
  1611 2161 2163 1
  1612 2162 2167 1
  1613 2163 2164 1
  1614 2163 2165 1
  1615 2164 2191 1
  1616 2165 2166 1
  1617 2165 2167 1
  1618 2167 2177 1
  1619 2168 2169 1
  1620 2168 2173 2
  1621 2169 2170 2
  1622 2170 2171 1
  1623 2171 2172 2
  1624 2171 2177 1
  1625 2172 2173 1
  1626 2172 2175 1
  1627 2173 2174 1
  1628 2175 2176 2
  1629 2176 2177 1
  1630 2191 2193 1
  1631 2191 2212 2
  1632 2191 2213 1
  1633 2192 2193 1
  1634 2192 2194 1
  1635 2194 2195 1
  1636 2194 2196 1
  1637 2195 2200 1
  1638 2196 2197 1
  1639 2196 2198 1
  1640 2197 2225 1
  1641 2198 2199 1
  1642 2198 2200 1
  1643 2200 2211 1
  1644 2201 2202 1
  1645 2201 2207 1
  1646 2202 2203 1
  1647 2202 2204 2
  1648 2204 2205 1
  1649 2205 2206 2
  1650 2205 2211 1
  1651 2206 2207 1
  1652 2206 2209 1
  1653 2207 2208 2
  1654 2209 2210 2
  1655 2210 2211 1
  1656 2225 2227 1
  1657 2225 2246 2
  1658 2225 2247 1
  1659 2226 2227 1
  1660 2226 2228 1
  1661 2228 2229 1
  1662 2228 2230 1
  1663 2229 2234 1
  1664 2230 2231 1
  1665 2230 2232 1
  1666 2231 2259 1
  1667 2232 2233 1
  1668 2232 2234 1
  1669 2234 2245 1
  1670 2235 2236 1
  1671 2235 2241 1
  1672 2236 2237 1
  1673 2236 2238 2
  1674 2238 2239 1
  1675 2239 2240 2
  1676 2239 2245 1
  1677 2240 2241 1
  1678 2240 2243 1
  1679 2241 2242 2
  1680 2243 2244 2
  1681 2244 2245 1
  1682 2259 2261 1
  1683 2259 2280 2
  1684 2259 2281 1
  1685 2260 2261 1
  1686 2260 2262 1
  1687 2262 2263 1
  1688 2262 2264 1
  1689 2263 2268 1
  1690 2264 2265 1
  1691 2264 2266 1
  1692 2265 2293 1
  1693 2266 2267 1
  1694 2266 2268 1
  1695 2268 2279 1
  1696 2269 2270 1
  1697 2269 2275 1
  1698 2270 2271 1
  1699 2270 2272 2
  1700 2272 2273 1
  1701 2273 2274 2
  1702 2273 2279 1
  1703 2274 2275 1
  1704 2274 2277 1
  1705 2275 2276 2
  1706 2277 2278 2
  1707 2278 2279 1
  1708 2293 2295 1
  1709 2293 2313 2
  1710 2293 2314 1
  1711 2294 2295 1
  1712 2294 2296 1
  1713 2296 2297 1
  1714 2296 2298 1
  1715 2297 2302 1
  1716 2298 2299 1
  1717 2298 2300 1
  1718 2299 2326 1
  1719 2300 2301 1
  1720 2300 2302 1
  1721 2302 2312 1
  1722 2303 2304 1
  1723 2303 2308 2
  1724 2304 2305 2
  1725 2305 2306 1
  1726 2306 2307 2
  1727 2306 2312 1
  1728 2307 2308 1
  1729 2307 2310 1
  1730 2308 2309 1
  1731 2310 2311 2
  1732 2311 2312 1
  1733 2326 2328 1
  1734 2326 2347 2
  1735 2326 2348 1
  1736 2327 2328 1
  1737 2327 2329 1
  1738 2329 2330 1
  1739 2329 2331 1
  1740 2330 2335 1
  1741 2331 2332 1
  1742 2331 2333 1
  1743 2332 2360 1
  1744 2333 2334 1
  1745 2333 2335 1
  1746 2335 2346 1
  1747 2336 2337 1
  1748 2336 2342 1
  1749 2337 2338 1
  1750 2337 2339 2
  1751 2339 2340 1
  1752 2340 2341 2
  1753 2340 2346 1
  1754 2341 2342 1
  1755 2341 2344 1
  1756 2342 2343 2
  1757 2344 2345 2
  1758 2345 2346 1
  1759 2360 2362 1
  1760 2360 2378 2
  1761 2360 2379 1
  1762 2361 2362 1
  1763 2361 2363 1
  1764 2363 2364 1
  1765 2363 2365 1
  1766 2364 2369 1
  1767 2365 2366 1
  1768 2365 2367 1
  1769 2366 2390 1
  1770 2367 2368 1
  1771 2367 2369 1
  1772 2369 2370 1
  1773 2370 2371 1
  1774 2370 2377 1
  1775 2371 2372 2
  1776 2371 2373 1
  1777 2373 2374 1
  1778 2374 2375 2
  1779 2374 2376 1
  1780 2376 2377 2
  1781 2390 2392 1
  1782 2390 2411 2
  1783 2390 2412 1
  1784 2391 2392 1
  1785 2391 2393 1
  1786 2393 2394 1
  1787 2393 2395 1
  1788 2394 2399 1
  1789 2395 2396 1
  1790 2395 2397 1
  1791 2396 2424 1
  1792 2397 2398 1
  1793 2397 2399 1
  1794 2399 2410 1
  1795 2400 2401 1
  1796 2400 2406 1
  1797 2401 2402 1
  1798 2401 2403 2
  1799 2403 2404 1
  1800 2404 2405 2
  1801 2404 2410 1
  1802 2405 2406 1
  1803 2405 2408 1
  1804 2406 2407 2
  1805 2408 2409 2
  1806 2409 2410 1
  1807 2424 2426 1
  1808 2424 2442 2
  1809 2424 2443 1
  1810 2425 2426 1
  1811 2425 2427 1
  1812 2427 2428 1
  1813 2427 2429 1
  1814 2428 2433 1
  1815 2429 2430 1
  1816 2429 2431 1
  1817 2430 2454 1
  1818 2431 2432 1
  1819 2431 2433 1
  1820 2433 2434 1
  1821 2434 2435 1
  1822 2434 2441 1
  1823 2435 2436 2
  1824 2435 2437 1
  1825 2437 2438 1
  1826 2438 2439 2
  1827 2438 2440 1
  1828 2440 2441 2
  1829 2454 2456 1
  1830 2454 2472 2
  1831 2454 2473 1
  1832 2455 2456 1
  1833 2455 2457 1
  1834 2457 2458 1
  1835 2457 2459 1
  1836 2458 2463 1
  1837 2459 2460 1
  1838 2459 2461 1
  1839 2461 2462 1
  1840 2461 2463 1
  1841 2463 2464 1
  1842 2464 2465 1
  1843 2464 2471 1
  1844 2465 2466 2
  1845 2465 2467 1
  1846 2467 2468 2
  1847 2468 2469 1
  1848 2468 2470 1
  1849 2470 2471 2
  1850   21    1 1
  1851   22    1 1
  1852   23    3 1
  1853   24    5 1
  1854   25    7 1
  1855   26    9 1
  1856   27   10 1
  1857   28   19 1
  1858   56   34 1
  1859   57   34 1
  1860   58   36 1
  1861   59   38 1
  1862   60   40 1
  1863   61   42 1
  1864   62   43 1
  1865   63   52 1
  1866   90   68 1
  1867   91   68 1
  1868   92   70 1
  1869   93   72 1
  1870   94   74 1
  1871   95   76 1
  1872   96   77 1
  1873   97   86 1
  1874  123  102 1
  1875  124  102 1
  1876  125  104 1
  1877  126  106 1
  1878  127  108 1
  1879  128  110 1
  1880  129  112 1
  1881  130  119 1
  1882  154  135 1
  1883  155  135 1
  1884  156  137 1
  1885  157  139 1
  1886  158  141 1
  1887  159  143 1
  1888  160  150 1
  1889  161  151 1
  1890  185  166 1
  1891  186  166 1
  1892  187  168 1
  1893  188  170 1
  1894  189  172 1
  1895  190  174 1
  1896  191  181 1
  1897  192  182 1
  1898  218  197 1
  1899  219  197 1
  1900  220  199 1
  1901  221  201 1
  1902  222  203 1
  1903  223  205 1
  1904  224  207 1
  1905  225  214 1
  1906  252  230 1
  1907  253  230 1
  1908  254  232 1
  1909  255  234 1
  1910  256  236 1
  1911  257  238 1
  1912  258  239 1
  1913  259  248 1
  1914  286  264 1
  1915  287  264 1
  1916  288  266 1
  1917  289  268 1
  1918  290  270 1
  1919  291  272 1
  1920  292  273 1
  1921  293  282 1
  1922  320  298 1
  1923  321  298 1
  1924  322  300 1
  1925  323  302 1
  1926  324  304 1
  1927  325  306 1
  1928  326  307 1
  1929  327  316 1
  1930  354  332 1
  1931  355  332 1
  1932  356  334 1
  1933  357  336 1
  1934  358  338 1
  1935  359  340 1
  1936  360  341 1
  1937  361  350 1
  1938  385  366 1
  1939  386  366 1
  1940  387  368 1
  1941  388  370 1
  1942  389  372 1
  1943  390  374 1
  1944  391  378 1
  1945  392  381 1
  1946  393  382 1
  1947  418  396 1
  1948  419  396 1
  1949  420  398 1
  1950  421  400 1
  1951  422  402 1
  1952  423  404 1
  1953  424  405 1
  1954  425  414 1
  1955  449  430 1
  1956  450  430 1
  1957  451  432 1
  1958  452  434 1
  1959  453  436 1
  1960  454  438 1
  1961  455  445 1
  1962  456  446 1
  1963  480  461 1
  1964  481  461 1
  1965  482  463 1
  1966  483  465 1
  1967  484  467 1
  1968  485  469 1
  1969  486  473 1
  1970  487  476 1
  1971  488  477 1
  1972  510  491 1
  1973  511  491 1
  1974  512  493 1
  1975  513  495 1
  1976  514  497 1
  1977  515  499 1
  1978  516  503 1
  1979  517  506 1
  1980  518  507 1
  1981  543  521 1
  1982  544  521 1
  1983  545  523 1
  1984  546  525 1
  1985  547  527 1
  1986  548  529 1
  1987  549  530 1
  1988  550  539 1
  1989  574  555 1
  1990  575  555 1
  1991  576  557 1
  1992  577  559 1
  1993  578  561 1
  1994  579  563 1
  1995  580  567 1
  1996  581  570 1
  1997  582  571 1
  1998  604  585 1
  1999  605  585 1
  2000  606  587 1
  2001  607  589 1
  2002  608  591 1
  2003  609  593 1
  2004  610  597 1
  2005  611  600 1
  2006  612  601 1
  2007  634  615 1
  2008  635  615 1
  2009  636  617 1
  2010  637  619 1
  2011  638  621 1
  2012  639  623 1
  2013  640  630 1
  2014  641  631 1
  2015  667  646 1
  2016  668  646 1
  2017  669  648 1
  2018  670  650 1
  2019  671  652 1
  2020  672  654 1
  2021  673  656 1
  2022  674  663 1
  2023  698  679 1
  2024  699  679 1
  2025  700  681 1
  2026  701  683 1
  2027  702  685 1
  2028  703  687 1
  2029  704  694 1
  2030  705  695 1
  2031  731  710 1
  2032  732  710 1
  2033  733  712 1
  2034  734  714 1
  2035  735  716 1
  2036  736  718 1
  2037  737  720 1
  2038  738  727 1
  2039  765  743 1
  2040  766  743 1
  2041  767  745 1
  2042  768  747 1
  2043  769  749 1
  2044  770  751 1
  2045  771  752 1
  2046  772  761 1
  2047  799  777 1
  2048  800  777 1
  2049  801  779 1
  2050  802  781 1
  2051  803  783 1
  2052  804  785 1
  2053  805  786 1
  2054  806  795 1
  2055  830  811 1
  2056  831  811 1
  2057  832  813 1
  2058  833  815 1
  2059  834  817 1
  2060  835  819 1
  2061  836  826 1
  2062  837  827 1
  2063  861  842 1
  2064  862  842 1
  2065  863  844 1
  2066  864  846 1
  2067  865  848 1
  2068  866  850 1
  2069  867  854 1
  2070  868  857 1
  2071  869  858 1
  2072  894  872 1
  2073  895  872 1
  2074  896  874 1
  2075  897  876 1
  2076  898  878 1
  2077  899  880 1
  2078  900  881 1
  2079  901  890 1
  2080  927  906 1
  2081  928  906 1
  2082  929  908 1
  2083  930  910 1
  2084  931  912 1
  2085  932  914 1
  2086  933  916 1
  2087  934  923 1
  2088  961  939 1
  2089  962  939 1
  2090  963  941 1
  2091  964  943 1
  2092  965  945 1
  2093  966  947 1
  2094  967  948 1
  2095  968  957 1
  2096  994  973 1
  2097  995  973 1
  2098  996  975 1
  2099  997  977 1
  2100  998  979 1
  2101  999  981 1
  2102 1000  983 1
  2103 1001  990 1
  2104 1027 1006 1
  2105 1028 1006 1
  2106 1029 1008 1
  2107 1030 1010 1
  2108 1031 1012 1
  2109 1032 1014 1
  2110 1033 1016 1
  2111 1034 1023 1
  2112 1060 1039 1
  2113 1061 1039 1
  2114 1062 1041 1
  2115 1063 1043 1
  2116 1064 1045 1
  2117 1065 1047 1
  2118 1066 1049 1
  2119 1067 1056 1
  2120 1094 1072 1
  2121 1095 1072 1
  2122 1096 1074 1
  2123 1097 1076 1
  2124 1098 1078 1
  2125 1099 1080 1
  2126 1100 1081 1
  2127 1101 1090 1
  2128 1125 1106 1
  2129 1126 1106 1
  2130 1127 1108 1
  2131 1128 1110 1
  2132 1129 1112 1
  2133 1130 1114 1
  2134 1131 1118 1
  2135 1132 1121 1
  2136 1133 1122 1
  2137 1155 1136 1
  2138 1156 1136 1
  2139 1157 1138 1
  2140 1158 1140 1
  2141 1159 1142 1
  2142 1160 1144 1
  2143 1161 1151 1
  2144 1162 1152 1
  2145 1186 1167 1
  2146 1187 1167 1
  2147 1188 1169 1
  2148 1189 1171 1
  2149 1190 1173 1
  2150 1191 1175 1
  2151 1192 1182 1
  2152 1193 1183 1
  2153 1217 1198 1
  2154 1218 1198 1
  2155 1219 1200 1
  2156 1220 1202 1
  2157 1221 1204 1
  2158 1222 1206 1
  2159 1223 1213 1
  2160 1224 1214 1
  2161 1248 1229 1
  2162 1249 1229 1
  2163 1250 1231 1
  2164 1251 1233 1
  2165 1252 1235 1
  2166 1253 1237 1
  2167 1254 1241 1
  2168 1255 1244 1
  2169 1256 1245 1
  2170 1278 1259 1
  2171 1279 1259 1
  2172 1280 1261 1
  2173 1281 1263 1
  2174 1282 1265 1
  2175 1283 1267 1
  2176 1284 1271 1
  2177 1285 1274 1
  2178 1286 1275 1
  2179 1308 1289 1
  2180 1309 1289 1
  2181 1310 1291 1
  2182 1311 1293 1
  2183 1312 1295 1
  2184 1313 1297 1
  2185 1314 1301 1
  2186 1315 1304 1
  2187 1316 1305 1
  2188 1341 1319 1
  2189 1342 1319 1
  2190 1343 1321 1
  2191 1344 1323 1
  2192 1345 1325 1
  2193 1346 1327 1
  2194 1347 1328 1
  2195 1348 1337 1
  2196 1374 1353 1
  2197 1375 1353 1
  2198 1376 1355 1
  2199 1377 1357 1
  2200 1378 1359 1
  2201 1379 1361 1
  2202 1380 1363 1
  2203 1381 1370 1
  2204 1407 1386 1
  2205 1408 1386 1
  2206 1409 1388 1
  2207 1410 1390 1
  2208 1411 1392 1
  2209 1412 1394 1
  2210 1413 1396 1
  2211 1414 1403 1
  2212 1438 1419 1
  2213 1439 1419 1
  2214 1440 1421 1
  2215 1441 1423 1
  2216 1442 1425 1
  2217 1443 1427 1
  2218 1444 1434 1
  2219 1445 1435 1
  2220 1469 1450 1
  2221 1470 1450 1
  2222 1471 1452 1
  2223 1472 1454 1
  2224 1473 1456 1
  2225 1474 1458 1
  2226 1475 1465 1
  2227 1476 1466 1
  2228 1500 1481 1
  2229 1501 1481 1
  2230 1502 1483 1
  2231 1503 1485 1
  2232 1504 1487 1
  2233 1505 1489 1
  2234 1506 1493 1
  2235 1507 1496 1
  2236 1508 1497 1
  2237 1533 1511 1
  2238 1534 1511 1
  2239 1535 1513 1
  2240 1536 1515 1
  2241 1537 1517 1
  2242 1538 1519 1
  2243 1539 1520 1
  2244 1540 1529 1
  2245 1566 1545 1
  2246 1567 1545 1
  2247 1568 1547 1
  2248 1569 1549 1
  2249 1570 1551 1
  2250 1571 1553 1
  2251 1572 1555 1
  2252 1573 1562 1
  2253 1599 1578 1
  2254 1600 1578 1
  2255 1601 1580 1
  2256 1602 1582 1
  2257 1603 1584 1
  2258 1604 1586 1
  2259 1605 1588 1
  2260 1606 1595 1
  2261 1630 1611 1
  2262 1631 1611 1
  2263 1632 1613 1
  2264 1633 1615 1
  2265 1634 1617 1
  2266 1635 1619 1
  2267 1636 1626 1
  2268 1637 1627 1
  2269 1663 1642 1
  2270 1664 1642 1
  2271 1665 1644 1
  2272 1666 1646 1
  2273 1667 1648 1
  2274 1668 1650 1
  2275 1669 1652 1
  2276 1670 1659 1
  2277 1697 1675 1
  2278 1698 1675 1
  2279 1699 1677 1
  2280 1700 1679 1
  2281 1701 1681 1
  2282 1702 1683 1
  2283 1703 1684 1
  2284 1704 1693 1
  2285 1731 1709 1
  2286 1732 1709 1
  2287 1733 1711 1
  2288 1734 1713 1
  2289 1735 1715 1
  2290 1736 1717 1
  2291 1737 1718 1
  2292 1738 1727 1
  2293 1765 1743 1
  2294 1766 1743 1
  2295 1767 1745 1
  2296 1768 1747 1
  2297 1769 1749 1
  2298 1770 1751 1
  2299 1771 1752 1
  2300 1772 1761 1
  2301 1796 1777 1
  2302 1797 1777 1
  2303 1798 1779 1
  2304 1799 1781 1
  2305 1800 1783 1
  2306 1801 1785 1
  2307 1802 1789 1
  2308 1803 1792 1
  2309 1804 1793 1
  2310 1828 1807 1
  2311 1829 1807 1
  2312 1830 1809 1
  2313 1831 1811 1
  2314 1832 1813 1
  2315 1833 1815 1
  2316 1834 1817 1
  2317 1835 1824 1
  2318 1861 1840 1
  2319 1862 1840 1
  2320 1863 1842 1
  2321 1864 1844 1
  2322 1865 1846 1
  2323 1866 1848 1
  2324 1867 1850 1
  2325 1868 1857 1
  2326 1892 1873 1
  2327 1893 1873 1
  2328 1894 1875 1
  2329 1895 1877 1
  2330 1896 1879 1
  2331 1897 1881 1
  2332 1898 1885 1
  2333 1899 1888 1
  2334 1900 1889 1
  2335 1925 1903 1
  2336 1926 1903 1
  2337 1927 1905 1
  2338 1928 1907 1
  2339 1929 1909 1
  2340 1930 1911 1
  2341 1931 1912 1
  2342 1932 1921 1
  2343 1956 1937 1
  2344 1957 1937 1
  2345 1958 1939 1
  2346 1959 1941 1
  2347 1960 1943 1
  2348 1961 1945 1
  2349 1962 1952 1
  2350 1963 1953 1
  2351 1987 1968 1
  2352 1988 1968 1
  2353 1989 1970 1
  2354 1990 1972 1
  2355 1991 1974 1
  2356 1992 1976 1
  2357 1993 1983 1
  2358 1994 1984 1
  2359 2018 1999 1
  2360 2019 1999 1
  2361 2020 2001 1
  2362 2021 2003 1
  2363 2022 2005 1
  2364 2023 2007 1
  2365 2024 2011 1
  2366 2025 2014 1
  2367 2026 2015 1
  2368 2051 2029 1
  2369 2052 2029 1
  2370 2053 2031 1
  2371 2054 2033 1
  2372 2055 2035 1
  2373 2056 2037 1
  2374 2057 2038 1
  2375 2058 2047 1
  2376 2082 2063 1
  2377 2083 2063 1
  2378 2084 2065 1
  2379 2085 2067 1
  2380 2086 2069 1
  2381 2087 2071 1
  2382 2088 2078 1
  2383 2089 2079 1
  2384 2116 2094 1
  2385 2117 2094 1
  2386 2118 2096 1
  2387 2119 2098 1
  2388 2120 2100 1
  2389 2121 2102 1
  2390 2122 2103 1
  2391 2123 2112 1
  2392 2147 2128 1
  2393 2148 2128 1
  2394 2149 2130 1
  2395 2150 2132 1
  2396 2151 2134 1
  2397 2152 2136 1
  2398 2153 2143 1
  2399 2154 2144 1
  2400 2180 2159 1
  2401 2181 2159 1
  2402 2182 2161 1
  2403 2183 2163 1
  2404 2184 2165 1
  2405 2185 2167 1
  2406 2186 2169 1
  2407 2187 2176 1
  2408 2214 2192 1
  2409 2215 2192 1
  2410 2216 2194 1
  2411 2217 2196 1
  2412 2218 2198 1
  2413 2219 2200 1
  2414 2220 2201 1
  2415 2221 2210 1
  2416 2248 2226 1
  2417 2249 2226 1
  2418 2250 2228 1
  2419 2251 2230 1
  2420 2252 2232 1
  2421 2253 2234 1
  2422 2254 2235 1
  2423 2255 2244 1
  2424 2282 2260 1
  2425 2283 2260 1
  2426 2284 2262 1
  2427 2285 2264 1
  2428 2286 2266 1
  2429 2287 2268 1
  2430 2288 2269 1
  2431 2289 2278 1
  2432 2315 2294 1
  2433 2316 2294 1
  2434 2317 2296 1
  2435 2318 2298 1
  2436 2319 2300 1
  2437 2320 2302 1
  2438 2321 2304 1
  2439 2322 2311 1
  2440 2349 2327 1
  2441 2350 2327 1
  2442 2351 2329 1
  2443 2352 2331 1
  2444 2353 2333 1
  2445 2354 2335 1
  2446 2355 2336 1
  2447 2356 2345 1
  2448 2380 2361 1
  2449 2381 2361 1
  2450 2382 2363 1
  2451 2383 2365 1
  2452 2384 2367 1
  2453 2385 2369 1
  2454 2386 2373 1
  2455 2387 2376 1
  2456 2388 2377 1
  2457 2413 2391 1
  2458 2414 2391 1
  2459 2415 2393 1
  2460 2416 2395 1
  2461 2417 2397 1
  2462 2418 2399 1
  2463 2419 2400 1
  2464 2420 2409 1
  2465 2444 2425 1
  2466 2445 2425 1
  2467 2446 2427 1
  2468 2447 2429 1
  2469 2448 2431 1
  2470 2449 2433 1
  2471 2450 2437 1
  2472 2451 2440 1
  2473 2452 2441 1
  2474 2474 2455 1
  2475 2475 2455 1
  2476 2476 2457 1
  2477 2477 2459 1
  2478 2478 2461 1
  2479 2479 2463 1
  2480 2480 2470 1
  2481 2481 2471 1
  2482   29   12 1
  2483   30   12 1
  2484   64   45 1
  2485   65   45 1
  2486   98   79 1
  2487   99   79 1
  2488  162  149 1
  2489  163  149 1
  2490  193  180 1
  2491  194  180 1
  2492  260  241 1
  2493  261  241 1
  2494  294  275 1
  2495  295  275 1
  2496  328  309 1
  2497  329  309 1
  2498  362  343 1
  2499  363  343 1
  2500  426  407 1
  2501  427  407 1
  2502  457  444 1
  2503  458  444 1
  2504  551  532 1
  2505  552  532 1
  2506  642  629 1
  2507  643  629 1
  2508  706  693 1
  2509  707  693 1
  2510  773  754 1
  2511  774  754 1
  2512  807  788 1
  2513  808  788 1
  2514  838  825 1
  2515  839  825 1
  2516  902  883 1
  2517  903  883 1
  2518  969  950 1
  2519  970  950 1
  2520 1102 1083 1
  2521 1103 1083 1
  2522 1163 1150 1
  2523 1164 1150 1
  2524 1194 1181 1
  2525 1195 1181 1
  2526 1225 1212 1
  2527 1226 1212 1
  2528 1349 1330 1
  2529 1350 1330 1
  2530 1446 1433 1
  2531 1447 1433 1
  2532 1477 1464 1
  2533 1478 1464 1
  2534 1541 1522 1
  2535 1542 1522 1
  2536 1638 1625 1
  2537 1639 1625 1
  2538 1705 1686 1
  2539 1706 1686 1
  2540 1739 1720 1
  2541 1740 1720 1
  2542 1773 1754 1
  2543 1774 1754 1
  2544 1933 1914 1
  2545 1934 1914 1
  2546 1964 1951 1
  2547 1965 1951 1
  2548 1995 1982 1
  2549 1996 1982 1
  2550 2059 2040 1
  2551 2060 2040 1
  2552 2090 2077 1
  2553 2091 2077 1
  2554 2124 2105 1
  2555 2125 2105 1
  2556 2155 2142 1
  2557 2156 2142 1
  2558 2222 2203 1
  2559 2223 2203 1
  2560 2256 2237 1
  2561 2257 2237 1
  2562 2290 2271 1
  2563 2291 2271 1
  2564 2357 2338 1
  2565 2358 2338 1
  2566 2421 2402 1
  2567 2422 2402 1
  2568 2482 2469 1
  2569 2483 2469 1
  2570 1104 1079 1
  2571 1574 1552 1
  2572 1165 1143 1
  2573  459  437 1
  2574  296  271 1
  2575 1836 1814 1
  2576  971  946 1
  2577 1002  980 1
  2578  330  305 1
  2579 1805 1784 1
  2580  583  562 1
  2581 1227 1205 1
  2582 1479 1457 1
  2583 2258 2233 1
  2584 2126 2101 1
  2585 1869 1847 1
  2586 2092 2070 1
  2587 1671 1649 1
  2588 2027 2006 1
  2589  394  373 1
  2590 1448 1426 1
  2591  904  879 1
  2592 1068 1046 1
  2593 2188 2166 1
  2594  100   75 1
  2595  428  403 1
  2596 1707 1682 1
  2597  262  237 1
  2598 1196 1174 1
  2599 1837 1822 1
  2600 1838 1822 1
  2601 1870 1855 1
  2602 1871 1855 1
  2603 2189 2174 1
  2604 2190 2174 1
  2605 1003  988 1
  2606 1004  988 1
  2607 1575 1560 1
  2608 1576 1560 1
  2609 1415 1401 1
  2610 1416 1401 1
  2611 1069 1054 1
  2612 1070 1054 1
  2613 1672 1657 1
  2614 1673 1657 1
  2615 1035 1021 1
  2616 1036 1021 1
  2617  739  725 1
  2618  740  725 1
  2619 2323 2309 1
  2620 2324 2309 1
  2621  675  661 1
  2622  676  661 1
  2623  131  117 1
  2624  132  117 1
  2625  226  212 1
  2626  227  212 1
  2627 1607 1593 1
  2628 1608 1593 1
  2629 1382 1368 1
  2630 1383 1368 1
  2631  935  921 1
  2632  936  921 1
  2633 2292 2267 1
  2634 2325 2301 1
  2635  840  818 1
  2636 1901 1880 1
  2637 1351 1326 1
  2638 1417 1393 1
  2639 2389 2368 1
  2640   66   41 1
  2641 1037 1013 1
  2642 1543 1518 1
  2643 2423 2398 1
  2644  613  592 1
  2645 1997 1975 1
  2646 1935 1910 1
  2647  133  109 1
  2648 2484 2460 1
  2649 2485 2462 1
  2650  553  528 1
  2651 1509 1488 1
  2652 1966 1944 1
  2653  870  849 1
  2654  228  204 1
  2655 2157 2135 1
  2656 2224 2199 1
  2657  708  686 1
  2658  937  913 1
  2659  519  498 1
  2660 2453 2432 1
  2661 1287 1266 1
  2662  741  717 1
  2663  775  750 1
  2664   31    8 1
  2665 1134 1113 1
  2666 1741 1716 1
  2667  489  468 1
  2668  809  784 1
  2669 1257 1236 1
  2670 1384 1360 1
  2671 1775 1750 1
  2672 1640 1618 1
  2673  364  339 1
  2674 2359 2334 1
  2675  195  173 1
  2676 1609 1585 1
  2677  644  622 1
  2678 2061 2036 1
  2679 1317 1296 1
  2680  164  142 1
  2681  677  653 1
  2682   32    2 1
@<TRIPOS>SUBSTRUCTURE
     1   G     3 RESIDUE           4 A       G     1 ROOT
     2   G    36 RESIDUE           4 A       G     2
     3   G    70 RESIDUE           4 A       G     2
     4   A   104 RESIDUE           4 A       A     2
     5   C   137 RESIDUE           4 A       C     2
     6   C   168 RESIDUE           4 A       C     2
     7   A   199 RESIDUE           4 A       A     2
     8   G   232 RESIDUE           4 A       G     2
     9   G   266 RESIDUE           4 A       G     2
    10   G   300 RESIDUE           4 A       G     2
    11   G   334 RESIDUE           4 A       G     2
    12   U   368 RESIDUE           4 A       U     2
    13   G   398 RESIDUE           4 A       G     2
    14   C   432 RESIDUE           4 A       C     2
    15   U   463 RESIDUE           4 A       U     2
    16   U   493 RESIDUE           4 A       U     2
    17   G   523 RESIDUE           4 A       G     2
    18   U   557 RESIDUE           4 A       U     2
    19   U   587 RESIDUE           4 A       U     2
    20   C   617 RESIDUE           4 A       C     2
    21   A   648 RESIDUE           4 A       A     2
    22   C   681 RESIDUE           4 A       C     2
    23   A   712 RESIDUE           4 A       A     2
    24   G   745 RESIDUE           4 A       G     2
    25   G   779 RESIDUE           4 A       G     2
    26   C   813 RESIDUE           4 A       C     2
    27   U   844 RESIDUE           4 A       U     2
    28   G   874 RESIDUE           4 A       G     2
    29   A   908 RESIDUE           4 A       A     2
    30   G   941 RESIDUE           4 A       G     2
    31   A   975 RESIDUE           4 A       A     2
    32   A  1008 RESIDUE           4 A       A     2
    33   A  1041 RESIDUE           4 A       A     2
    34   G  1074 RESIDUE           4 A       G     2
    35   U  1108 RESIDUE           4 A       U     2
    36   C  1138 RESIDUE           4 A       C     2
    37   C  1169 RESIDUE           4 A       C     2
    38   C  1200 RESIDUE           4 A       C     2
    39   U  1231 RESIDUE           4 A       U     2
    40   U  1261 RESIDUE           4 A       U     2
    41   U  1291 RESIDUE           4 A       U     2
    42   G  1321 RESIDUE           4 A       G     2
    43   A  1355 RESIDUE           4 A       A     2
    44   A  1388 RESIDUE           4 A       A     2
    45   C  1421 RESIDUE           4 A       C     2
    46   C  1452 RESIDUE           4 A       C     2
    47   U  1483 RESIDUE           4 A       U     2
    48   G  1513 RESIDUE           4 A       G     2
    49   A  1547 RESIDUE           4 A       A     2
    50   A  1580 RESIDUE           4 A       A     2
    51   C  1613 RESIDUE           4 A       C     2
    52   A  1644 RESIDUE           4 A       A     2
    53   G  1677 RESIDUE           4 A       G     2
    54   G  1711 RESIDUE           4 A       G     2
    55   G  1745 RESIDUE           4 A       G     2
    56   U  1779 RESIDUE           4 A       U     2
    57   A  1809 RESIDUE           4 A       A     2
    58   A  1842 RESIDUE           4 A       A     2
    59   U  1875 RESIDUE           4 A       U     2
    60   G  1905 RESIDUE           4 A       G     2
    61   C  1939 RESIDUE           4 A       C     2
    62   C  1970 RESIDUE           4 A       C     2
    63   U  2001 RESIDUE           4 A       U     2
    64   G  2031 RESIDUE           4 A       G     2
    65   C  2065 RESIDUE           4 A       C     2
    66   G  2096 RESIDUE           4 A       G     2
    67   C  2130 RESIDUE           4 A       C     2
    68   A  2161 RESIDUE           4 A       A     2
    69   G  2194 RESIDUE           4 A       G     2
    70   G  2228 RESIDUE           4 A       G     2
    71   G  2262 RESIDUE           4 A       G     2
    72   A  2296 RESIDUE           4 A       A     2
    73   G  2329 RESIDUE           4 A       G     2
    74   U  2363 RESIDUE           4 A       U     2
    75   G  2393 RESIDUE           4 A       G     2
    76   U  2427 RESIDUE           4 A       U     2
    77   C  2457 RESIDUE           4 A       C     1
