# created with PyMOL 2.5.1
@<TRIPOS>MOLECULE
2CKY_nuc
1655 1852 77            
SMALL
USER_CHARGES
@<TRIPOS>ATOM
1	   P	0.882	-9.772	-61.888	 P	1	G1	0.000	
2	 C5'	2.311	-11.103	-60.223	C.3	1	G1	0.000	
3	 O5'	1.050	-11.024	-60.877	O.3	1	G1	0.000	
4	 C4'	2.305	-11.628	-58.794	C.3	1	G1	0.000	
5	 O4'	2.607	-13.051	-58.862	O.3	1	G1	0.000	
6	 C3'	3.429	-11.074	-57.894	C.3	1	G1	0.000	
7	 O3'	3.173	-9.826	-57.174	O.3	1	G1	0.000	
8	 C2'	3.743	-12.225	-56.937	C.3	1	G1	0.000	
9	 O2'	2.905	-12.316	-55.818	O.3	1	G1	0.000	
10	 C1'	3.559	-13.426	-57.857	C.3	1	G1	0.000	
11	  N1	6.655	-14.493	-61.814	N.pl3	1	G1	0.000	
12	  C2	5.321	-14.136	-61.846	C.2	1	G1	0.000	
13	  N2	4.743	-14.053	-63.053	N.pl3	1	G1	0.000	
14	  N3	4.585	-13.881	-60.781	N.2	1	G1	0.000	
15	  C4	5.313	-14.012	-59.661	C.2	1	G1	0.000	
16	  C5	6.640	-14.359	-59.528	C.2	1	G1	0.000	
17	  C6	7.400	-14.624	-60.652	C.2	1	G1	0.000	
18	  O6	8.584	-14.936	-60.635	O.2	1	G1	0.000	
19	  N7	7.064	-14.398	-58.213	N.2	1	G1	0.000	
20	  C8	5.980	-14.069	-57.559	C.2	1	G1	0.000	
21	  N9	4.878	-13.822	-58.368	N.pl3	1	G1	0.000	
22	 OP1	0.790	-8.505	-61.104	O.2	1	G1	0.000	
23	 OP2	1.874	-9.867	-63.004	 O	1	G1	0.000	
24	   P	4.421	-8.877	-56.741	P.3	2	G2	0.000	
25	 C5'	6.580	-9.650	-55.461	C.3	2	G2	0.000	
26	 O5'	5.568	-9.933	-56.403	O.3	2	G2	0.000	
27	 C4'	7.893	-10.139	-56.032	C.3	2	G2	0.000	
28	 O4'	7.675	-11.210	-56.980	O.3	2	G2	0.000	
29	 C3'	8.634	-9.144	-56.899	C.3	2	G2	0.000	
30	 O3'	9.208	-8.059	-56.123	O.3	2	G2	0.000	
31	 C2'	9.639	-10.096	-57.539	C.3	2	G2	0.000	
32	 O2'	10.579	-10.612	-56.625	O.3	2	G2	0.000	
33	 C1'	8.725	-11.223	-57.933	C.3	2	G2	0.000	
34	  N1	9.554	-11.564	-62.976	N.pl3	2	G2	0.000	
35	  C2	10.466	-11.704	-61.959	C.2	2	G2	0.000	
36	  N2	11.720	-11.953	-62.371	N.pl3	2	G2	0.000	
37	  N3	10.174	-11.593	-60.665	N.2	2	G2	0.000	
38	  C4	8.849	-11.341	-60.473	C.2	2	G2	0.000	
39	  C5	7.869	-11.200	-61.427	C.2	2	G2	0.000	
40	  C6	8.200	-11.312	-62.777	C.2	2	G2	0.000	
41	  O6	7.411	-11.201	-63.714	O.2	2	G2	0.000	
42	  N7	6.626	-10.953	-60.871	N.2	2	G2	0.000	
43	  C8	6.856	-10.923	-59.590	C.2	2	G2	0.000	
44	  N9	8.176	-11.145	-59.278	N.pl3	2	G2	0.000	
45	 OP1	4.195	-8.213	-55.424	O.co2	2	G2	0.000	
46	 OP2	4.787	-8.121	-57.964	O.co2	2	G2	0.000	
47	   P	9.513	-6.692	-56.920	P.3	3	G3	0.000	
48	 C5'	11.975	-7.587	-57.522	C.3	3	G3	0.000	
49	 O5'	10.646	-7.216	-57.948	O.3	3	G3	0.000	
50	 C4'	12.876	-7.743	-58.730	C.3	3	G3	0.000	
51	 O4'	12.298	-8.765	-59.570	O.3	3	G3	0.000	
52	 C3'	12.954	-6.559	-59.680	C.3	3	G3	0.000	
53	 O3'	13.895	-5.576	-59.285	O.3	3	G3	0.000	
54	 C2'	13.312	-7.217	-61.010	C.3	3	G3	0.000	
55	 O2'	14.659	-7.632	-61.143	O.3	3	G3	0.000	
56	 C1'	12.418	-8.441	-60.952	C.3	3	G3	0.000	
57	  N1	9.315	-8.277	-65.027	N.pl3	3	G3	0.000	
58	  C2	10.677	-8.446	-64.999	C.2	3	G3	0.000	
59	  N2	11.266	-8.590	-66.187	N.pl3	3	G3	0.000	
60	  N3	11.412	-8.461	-63.890	N.2	3	G3	0.000	
61	  C4	10.654	-8.312	-62.785	C.2	3	G3	0.000	
62	  C5	9.297	-8.143	-62.716	C.2	3	G3	0.000	
63	  C6	8.536	-8.118	-63.882	C.2	3	G3	0.000	
64	  O6	7.312	-7.966	-63.915	O.2	3	G3	0.000	
65	  N7	8.851	-7.998	-61.415	N.2	3	G3	0.000	
66	  C8	9.936	-8.090	-60.708	C.2	3	G3	0.000	
67	  N9	11.070	-8.276	-61.475	N.pl3	3	G3	0.000	
68	 OP1	10.117	-5.692	-55.998	O.co2	3	G3	0.000	
69	 OP2	8.303	-6.348	-57.719	O.co2	3	G3	0.000	
70	   P	13.563	-4.061	-59.714	P.3	4	A4	0.000	
71	 C5'	15.343	-4.565	-61.618	C.3	4	A4	0.000	
72	 O5'	14.037	-4.171	-61.244	O.3	4	A4	0.000	
73	 C4'	15.431	-4.639	-63.127	C.3	4	A4	0.000	
74	 O4'	14.545	-5.675	-63.596	O.3	4	A4	0.000	
75	 C3'	14.941	-3.418	-63.897	C.3	4	A4	0.000	
76	 O3'	15.918	-2.362	-63.984	O.3	4	A4	0.000	
77	 C2'	14.628	-4.044	-65.246	C.3	4	A4	0.000	
78	 O2'	15.768	-4.433	-65.980	O.3	4	A4	0.000	
79	 C1'	13.901	-5.290	-64.802	C.3	4	A4	0.000	
80	  N1	9.186	-5.465	-66.867	N.2	4	A4	0.000	
81	  C2	10.402	-5.625	-67.409	C.2	4	A4	0.000	
82	  N3	11.595	-5.561	-66.814	N.2	4	A4	0.000	
83	  C4	11.458	-5.292	-65.503	C.2	4	A4	0.000	
84	  C5	10.270	-5.108	-64.812	C.2	4	A4	0.000	
85	  C6	9.077	-5.204	-65.551	C.2	4	A4	0.000	
86	  N6	7.867	-5.049	-65.006	N.pl3	4	A4	0.000	
87	  N7	10.516	-4.854	-63.471	N.2	4	A4	0.000	
88	  C8	11.825	-4.888	-63.374	C.2	4	A4	0.000	
89	  N9	12.462	-5.148	-64.565	N.pl3	4	A4	0.000	
90	 OP1	14.375	-3.110	-58.899	O.co2	4	A4	0.000	
91	 OP2	12.100	-3.813	-59.723	O.co2	4	A4	0.000	
92	   P	15.421	-0.833	-63.894	P.3	5	C5	0.000	
93	 C5'	15.558	-0.683	-66.451	C.3	5	C5	0.000	
94	 O5'	14.727	-0.752	-65.333	O.3	5	C5	0.000	
95	 C4'	14.747	-0.838	-67.716	C.3	5	C5	0.000	
96	 O4'	13.910	-2.009	-67.636	O.3	5	C5	0.000	
97	 C3'	13.723	0.242	-68.020	C.3	5	C5	0.000	
98	 O3'	14.370	1.396	-68.459	O.3	5	C5	0.000	
99	 C2'	12.898	-0.486	-69.083	C.3	5	C5	0.000	
100	 O2'	13.582	-0.743	-70.294	O.3	5	C5	0.000	
101	 C1'	12.693	-1.780	-68.326	C.3	5	C5	0.000	
102	  N1	11.582	-1.772	-67.324	N.pl3	5	C5	0.000	
103	  C2	10.285	-2.005	-67.785	C.2	5	C5	0.000	
104	  O2	10.085	-2.189	-69.000	O.2	5	C5	0.000	
105	  N3	9.281	-2.020	-66.883	N.2	5	C5	0.000	
106	  C4	9.532	-1.825	-65.591	C.2	5	C5	0.000	
107	  N4	8.495	-1.858	-64.744	N.pl3	5	C5	0.000	
108	  C5	10.858	-1.595	-65.106	C.2	5	C5	0.000	
109	  C6	11.844	-1.580	-65.998	C.2	5	C5	0.000	
110	 OP1	16.605	0.071	-63.874	O.co2	5	C5	0.000	
111	 OP2	14.451	-0.664	-62.769	O.co2	5	C5	0.000	
112	   P	13.697	2.795	-68.169	P.3	6	C6	0.000	
113	 C5'	12.273	2.577	-70.326	C.3	6	C6	0.000	
114	 O5'	12.300	2.553	-68.908	O.3	6	C6	0.000	
115	 C4'	10.872	2.828	-70.851	C.3	6	C6	0.000	
116	 O4'	10.116	1.614	-70.635	O.3	6	C6	0.000	
117	 C3'	10.012	3.921	-70.203	C.3	6	C6	0.000	
118	 O3'	10.272	5.244	-70.684	O.3	6	C6	0.000	
119	 C2'	8.640	3.444	-70.656	C.3	6	C6	0.000	
120	 O2'	8.375	3.833	-71.994	O.3	6	C6	0.000	
121	 C1'	8.762	1.928	-70.431	C.3	6	C6	0.000	
122	  N1	8.407	1.604	-69.039	N.pl3	6	C6	0.000	
123	  C2	7.103	1.202	-68.708	C.2	6	C6	0.000	
124	  O2	6.258	1.076	-69.611	O.2	6	C6	0.000	
125	  N3	6.821	0.945	-67.390	N.2	6	C6	0.000	
126	  C4	7.768	1.091	-66.439	C.2	6	C6	0.000	
127	  N4	7.500	0.855	-65.152	N.pl3	6	C6	0.000	
128	  C5	9.084	1.506	-66.783	C.2	6	C6	0.000	
129	  C6	9.360	1.744	-68.072	C.2	6	C6	0.000	
130	 OP1	14.543	3.726	-68.930	O.co2	6	C6	0.000	
131	 OP2	13.531	3.101	-66.729	O.co2	6	C6	0.000	
132	   P	9.807	6.600	-69.944	P.3	7	A7	0.000	
133	 C5'	7.295	6.585	-70.769	C.3	7	A7	0.000	
134	 O5'	8.227	6.508	-69.674	O.3	7	A7	0.000	
135	 C4'	5.855	6.315	-70.346	C.3	7	A7	0.000	
136	 O4'	5.736	4.933	-69.902	O.3	7	A7	0.000	
137	 C3'	5.304	7.138	-69.173	C.3	7	A7	0.000	
138	 O3'	4.809	8.452	-69.531	O.3	7	A7	0.000	
139	 C2'	4.174	6.205	-68.726	C.3	7	A7	0.000	
140	 O2'	3.038	6.169	-69.570	O.3	7	A7	0.000	
141	 C1'	4.899	4.861	-68.750	C.3	7	A7	0.000	
142	  N1	4.037	3.799	-63.880	N.2	7	A7	0.000	
143	  C2	3.231	3.994	-64.936	C.2	7	A7	0.000	
144	  N3	3.582	4.263	-66.189	N.2	7	A7	0.000	
145	  C4	4.919	4.348	-66.303	C.2	7	A7	0.000	
146	  C5	5.878	4.178	-65.317	C.2	7	A7	0.000	
147	  C6	5.383	3.874	-64.021	C.2	7	A7	0.000	
148	  N6	6.127	3.669	-62.922	N.pl3	7	A7	0.000	
149	  N7	7.147	4.337	-65.850	N.2	7	A7	0.000	
150	  C8	6.921	4.593	-67.122	C.2	7	A7	0.000	
151	  N9	5.589	4.606	-67.467	N.pl3	7	A7	0.000	
152	 OP1	10.020	7.558	-71.042	O.co2	7	A7	0.000	
153	 OP2	10.479	6.834	-68.635	O.co2	7	A7	0.000	
154	   P	5.145	9.857	-68.786	P.3	8	G8	0.000	
155	 C5'	2.826	10.023	-67.591	C.3	8	G8	0.000	
156	 O5'	4.234	9.924	-67.448	O.3	8	G8	0.000	
157	 C4'	2.076	9.233	-66.545	C.3	8	G8	0.000	
158	 O4'	2.644	7.909	-66.324	O.3	8	G8	0.000	
159	 C3'	2.111	9.815	-65.157	C.3	8	G8	0.000	
160	 O3'	1.289	10.927	-65.060	O.3	8	G8	0.000	
161	 C2'	1.521	8.654	-64.378	C.3	8	G8	0.000	
162	 O2'	0.131	8.496	-64.563	O.3	8	G8	0.000	
163	 C1'	2.299	7.503	-65.009	C.3	8	G8	0.000	
164	  N1	4.308	5.942	-60.604	N.pl3	8	G8	0.000	
165	  C2	2.983	6.008	-60.972	C.2	8	G8	0.000	
166	  N2	2.104	5.621	-60.043	N.pl3	8	G8	0.000	
167	  N3	2.550	6.441	-62.151	N.2	8	G8	0.000	
168	  C4	3.583	6.794	-62.953	C.2	8	G8	0.000	
169	  C5	4.923	6.762	-62.676	C.2	8	G8	0.000	
170	  C6	5.357	6.304	-61.441	C.2	8	G8	0.000	
171	  O6	6.528	6.228	-61.080	O.2	8	G8	0.000	
172	  N7	5.684	7.189	-63.740	N.2	8	G8	0.000	
173	  C8	4.801	7.477	-64.657	C.2	8	G8	0.000	
174	  N9	3.507	7.257	-64.248	N.pl3	8	G8	0.000	
175	 OP1	4.699	10.846	-69.811	O.co2	8	G8	0.000	
176	 OP2	6.537	9.876	-68.264	O.co2	8	G8	0.000	
177	   P	1.644	12.051	-63.982	P.3	9	G9	0.000	
178	 C5'	-0.392	11.099	-62.547	C.3	9	G9	0.000	
179	 O5'	0.895	11.689	-62.635	O.3	9	G9	0.000	
180	 C4'	-0.523	10.515	-61.147	C.3	9	G9	0.000	
181	 O4'	0.221	9.275	-61.011	O.3	9	G9	0.000	
182	 C3'	0.099	11.371	-60.065	C.3	9	G9	0.000	
183	 O3'	-0.762	12.419	-59.802	O.3	9	G9	0.000	
184	 C2'	0.226	10.371	-58.931	C.3	9	G9	0.000	
185	 O2'	-0.993	9.979	-58.340	O.3	9	G9	0.000	
186	 C1'	0.807	9.234	-59.729	C.3	9	G9	0.000	
187	  N1	5.078	8.496	-57.205	N.pl3	9	G9	0.000	
188	  C2	3.766	8.359	-56.797	C.2	9	G9	0.000	
189	  N2	3.543	7.969	-55.540	N.pl3	9	G9	0.000	
190	  N3	2.722	8.596	-57.564	N.2	9	G9	0.000	
191	  C4	3.102	8.993	-58.810	C.2	9	G9	0.000	
192	  C5	4.364	9.161	-59.319	C.2	9	G9	0.000	
193	  C6	5.470	8.907	-58.479	C.2	9	G9	0.000	
194	  O6	6.667	9.018	-58.760	O.2	9	G9	0.000	
195	  N7	4.302	9.577	-60.638	N.2	9	G9	0.000	
196	  C8	3.032	9.654	-60.901	C.2	9	G9	0.000	
197	  N9	2.252	9.311	-59.835	N.pl3	9	G9	0.000	
198	 OP1	1.127	13.345	-64.503	O.co2	9	G9	0.000	
199	 OP2	3.073	11.894	-63.647	O.co2	9	G9	0.000	
200	   P	-0.340	13.578	-58.817	P.3	10	G10	0.000	
201	 C5'	-0.710	12.623	-56.441	C.3	10	G10	0.000	
202	 O5'	0.191	12.908	-57.486	O.3	10	G10	0.000	
203	 C4'	0.100	12.192	-55.246	C.3	10	G10	0.000	
204	 O4'	1.248	11.420	-55.639	O.3	10	G10	0.000	
205	 C3'	0.787	13.344	-54.601	C.3	10	G10	0.000	
206	 O3'	-0.195	14.147	-53.938	O.3	10	G10	0.000	
207	 C2'	1.829	12.629	-53.750	C.3	10	G10	0.000	
208	 O2'	1.307	12.115	-52.545	O.3	10	G10	0.000	
209	 C1'	2.221	11.452	-54.619	C.3	10	G10	0.000	
210	  N1	7.261	10.333	-54.677	N.pl3	10	G10	0.000	
211	  C2	6.366	10.102	-53.655	C.2	10	G10	0.000	
212	  N2	6.890	9.526	-52.557	N.pl3	10	G10	0.000	
213	  N3	5.068	10.437	-53.720	N.2	10	G10	0.000	
214	  C4	4.729	11.008	-54.904	C.2	10	G10	0.000	
215	  C5	5.557	11.252	-55.970	C.2	10	G10	0.000	
216	  C6	6.918	10.900	-55.910	C.2	10	G10	0.000	
217	  O6	7.767	11.056	-56.804	O.2	10	G10	0.000	
218	  N7	4.876	11.819	-57.024	N.2	10	G10	0.000	
219	  C8	3.660	11.926	-56.589	C.2	10	G10	0.000	
220	  N9	3.498	11.470	-55.307	N.pl3	10	G10	0.000	
221	 OP1	-1.641	14.242	-58.570	O.co2	10	G10	0.000	
222	 OP2	0.860	14.240	-59.335	O.co2	10	G10	0.000	
223	   P	0.295	15.610	-53.535	P.3	11	G11	0.000	
224	 C5'	0.454	15.093	-51.028	C.3	11	G11	0.000	
225	 O5'	1.154	15.316	-52.225	O.3	11	G11	0.000	
226	 C4'	1.430	14.666	-49.967	C.3	11	G11	0.000	
227	 O4'	2.262	13.609	-50.481	O.3	11	G11	0.000	
228	 C3'	2.421	15.731	-49.524	C.3	11	G11	0.000	
229	 O3'	1.798	16.580	-48.567	O.3	11	G11	0.000	
230	 C2'	3.496	14.840	-48.926	C.3	11	G11	0.000	
231	 O2'	3.092	14.307	-47.682	O.3	11	G11	0.000	
232	 C1'	3.568	13.732	-49.964	C.3	11	G11	0.000	
233	  N1	8.111	12.748	-52.102	N.pl3	11	G11	0.000	
234	  C2	7.648	12.368	-50.873	C.2	11	G11	0.000	
235	  N2	8.509	11.642	-50.148	N.pl3	11	G11	0.000	
236	  N3	6.439	12.684	-50.404	N.2	11	G11	0.000	
237	  C4	5.708	13.422	-51.285	C.2	11	G11	0.000	
238	  C5	6.082	13.836	-52.531	C.2	11	G11	0.000	
239	  C6	7.369	13.496	-52.997	C.2	11	G11	0.000	
240	  O6	7.883	13.768	-54.076	O.2	11	G11	0.000	
241	  N7	5.072	14.559	-53.137	N.2	11	G11	0.000	
242	  C8	4.114	14.587	-52.268	C.2	11	G11	0.000	
243	  N9	4.434	13.919	-51.120	N.pl3	11	G11	0.000	
244	 OP1	-0.860	16.431	-53.100	O.co2	11	G11	0.000	
245	 OP2	1.195	16.053	-54.619	O.co2	11	G11	0.000	
246	   P	2.084	18.137	-48.454	P.3	12	U12	0.000	
247	 C5'	3.961	18.011	-46.754	C.3	12	U12	0.000	
248	 O5'	3.627	18.150	-48.092	O.3	12	U12	0.000	
249	 C4'	5.451	17.893	-46.664	C.3	12	U12	0.000	
250	 O4'	5.886	16.986	-47.667	O.3	12	U12	0.000	
251	 C3'	6.218	19.155	-46.980	C.3	12	U12	0.000	
252	 O3'	6.297	19.887	-45.766	O.3	12	U12	0.000	
253	 C2'	7.577	18.637	-47.428	C.3	12	U12	0.000	
254	 O2'	8.487	18.442	-46.348	O.3	12	U12	0.000	
255	 C1'	7.220	17.290	-47.996	C.3	12	U12	0.000	
256	  N1	7.293	17.179	-49.442	N.pl3	12	U12	0.000	
257	  C2	8.384	16.546	-49.983	C.2	12	U12	0.000	
258	  O2	9.293	16.117	-49.307	O.2	12	U12	0.000	
259	  N3	8.377	16.433	-51.352	N.pl3	12	U12	0.000	
260	  C4	7.390	16.886	-52.208	C.2	12	U12	0.000	
261	  O4	7.530	16.713	-53.415	O.2	12	U12	0.000	
262	  C5	6.262	17.530	-51.566	C.2	12	U12	0.000	
263	  C6	6.248	17.643	-50.227	C.2	12	U12	0.000	
264	 OP1	1.401	18.601	-47.233	O.co2	12	U12	0.000	
265	 OP2	1.826	18.769	-49.763	O.co2	12	U12	0.000	
266	   P	5.831	21.401	-45.670	P.3	13	G13	0.000	
267	 C5'	3.930	20.922	-44.170	C.3	13	G13	0.000	
268	 O5'	5.233	21.458	-44.206	O.3	13	G13	0.000	
269	 C4'	3.736	20.109	-42.931	C.3	13	G13	0.000	
270	 O4'	4.464	18.879	-43.007	O.3	13	G13	0.000	
271	 C3'	4.311	20.768	-41.699	C.3	13	G13	0.000	
272	 O3'	3.513	21.873	-41.319	O.3	13	G13	0.000	
273	 C2'	4.186	19.570	-40.791	C.3	13	G13	0.000	
274	 O2'	2.808	19.358	-40.518	O.3	13	G13	0.000	
275	 C1'	4.802	18.501	-41.694	C.3	13	G13	0.000	
276	  N1	8.819	16.783	-39.098	N.pl3	13	G13	0.000	
277	  C2	7.491	16.789	-38.757	C.2	13	G13	0.000	
278	  N2	7.215	16.274	-37.553	N.pl3	13	G13	0.000	
279	  N3	6.513	17.273	-39.511	N.2	13	G13	0.000	
280	  C4	6.993	17.753	-40.683	C.2	13	G13	0.000	
281	  C5	8.292	17.789	-41.122	C.2	13	G13	0.000	
282	  C6	9.304	17.261	-40.315	C.2	13	G13	0.000	
283	  O6	10.515	17.216	-40.575	O.2	13	G13	0.000	
284	  N7	8.396	18.358	-42.363	N.2	13	G13	0.000	
285	  C8	7.158	18.645	-42.660	C.2	13	G13	0.000	
286	  N9	6.249	18.325	-41.677	N.pl3	13	G13	0.000	
287	 OP1	4.708	21.644	-46.628	O.co2	13	G13	0.000	
288	 OP2	7.089	22.173	-45.710	O.co2	13	G13	0.000	
289	   P	4.066	22.957	-40.284	P.3	14	C14	0.000	
290	 C5'	3.732	22.017	-37.897	C.3	14	C14	0.000	
291	 O5'	4.574	22.169	-38.988	O.3	14	C14	0.000	
292	 C4'	4.479	21.281	-36.834	C.3	14	C14	0.000	
293	 O4'	5.232	20.212	-37.431	O.3	14	C14	0.000	
294	 C3'	5.565	22.069	-36.150	C.3	14	C14	0.000	
295	 O3'	4.959	23.001	-35.274	O.3	14	C14	0.000	
296	 C2'	6.309	20.915	-35.495	C.3	14	C14	0.000	
297	 O2'	5.586	20.243	-34.492	O.3	14	C14	0.000	
298	 C1'	6.391	19.958	-36.655	C.3	14	C14	0.000	
299	  N1	7.563	20.096	-37.497	N.pl3	14	C14	0.000	
300	  C2	8.793	19.687	-37.025	C.2	14	C14	0.000	
301	  O2	8.864	19.253	-35.886	O.2	14	C14	0.000	
302	  N3	9.882	19.789	-37.812	N.2	14	C14	0.000	
303	  C4	9.745	20.286	-39.035	C.2	14	C14	0.000	
304	  N4	10.819	20.398	-39.822	N.pl3	14	C14	0.000	
305	  C5	8.493	20.715	-39.538	C.2	14	C14	0.000	
306	  C6	7.436	20.595	-38.747	C.2	14	C14	0.000	
307	 OP1	2.838	23.753	-39.972	O.co2	14	C14	0.000	
308	 OP2	5.316	23.555	-40.827	O.co2	14	C14	0.000	
309	   P	5.587	24.454	-35.076	P.3	15	U15	0.000	
310	 C5'	7.025	24.147	-33.018	C.3	15	U15	0.000	
311	 O5'	6.978	24.142	-34.400	O.3	15	U15	0.000	
312	 C4'	8.379	23.639	-32.625	C.3	15	U15	0.000	
313	 O4'	8.755	22.531	-33.466	O.3	15	U15	0.000	
314	 C3'	9.517	24.598	-32.878	C.3	15	U15	0.000	
315	 O3'	9.518	25.562	-31.883	O.3	15	U15	0.000	
316	 C2'	10.683	23.645	-32.750	C.3	15	U15	0.000	
317	 O2'	10.889	23.213	-31.413	O.3	15	U15	0.000	
318	 C1'	10.154	22.521	-33.621	C.3	15	U15	0.000	
319	  N1	10.472	22.663	-35.061	N.pl3	15	U15	0.000	
320	  C2	11.773	22.427	-35.427	C.2	15	U15	0.000	
321	  O2	12.639	22.146	-34.613	O.2	15	U15	0.000	
322	  N3	12.058	22.553	-36.753	N.pl3	15	U15	0.000	
323	  C4	11.153	22.874	-37.730	C.2	15	U15	0.000	
324	  O4	11.560	22.943	-38.884	O.2	15	U15	0.000	
325	  C5	9.791	23.105	-37.294	C.2	15	U15	0.000	
326	  C6	9.499	22.988	-35.991	C.2	15	U15	0.000	
327	 OP1	4.717	25.185	-34.130	O.co2	15	U15	0.000	
328	 OP2	5.898	25.035	-36.401	O.co2	15	U15	0.000	
329	   P	10.038	27.021	-32.194	P.3	16	U16	0.000	
330	 C5'	12.267	26.829	-31.039	C.3	16	U16	0.000	
331	 O5'	11.594	26.799	-32.245	O.3	16	U16	0.000	
332	 C4'	13.694	26.534	-31.394	C.3	16	U16	0.000	
333	 O4'	13.743	25.486	-32.380	O.3	16	U16	0.000	
334	 C3'	14.431	27.631	-32.134	C.3	16	U16	0.000	
335	 O3'	14.677	28.689	-31.254	O.3	16	U16	0.000	
336	 C2'	15.676	26.847	-32.490	C.3	16	U16	0.000	
337	 O2'	16.479	26.625	-31.349	O.3	16	U16	0.000	
338	 C1'	15.018	25.566	-32.974	C.3	16	U16	0.000	
339	  N1	14.766	25.528	-34.391	N.pl3	16	U16	0.000	
340	  C2	15.827	25.311	-35.234	C.2	16	U16	0.000	
341	  O2	16.976	25.169	-34.827	O.2	16	U16	0.000	
342	  N3	15.486	25.268	-36.563	N.pl3	16	U16	0.000	
343	  C4	14.215	25.441	-37.081	C.2	16	U16	0.000	
344	  O4	14.022	25.395	-38.287	O.2	16	U16	0.000	
345	  C5	13.172	25.648	-36.124	C.2	16	U16	0.000	
346	  C6	13.476	25.694	-34.826	C.2	16	U16	0.000	
347	 OP1	9.704	27.742	-30.945	O.co2	16	U16	0.000	
348	 OP2	9.592	27.464	-33.551	O.co2	16	U16	0.000	
349	   P	14.693	30.206	-31.752	P.3	17	G17	0.000	
350	 C5'	17.326	30.380	-31.886	C.3	17	G17	0.000	
351	 O5'	16.072	30.325	-32.554	O.3	17	G17	0.000	
352	 C4'	18.419	30.204	-32.916	C.3	17	G17	0.000	
353	 O4'	18.198	28.956	-33.602	O.3	17	G17	0.000	
354	 C3'	18.418	31.209	-34.056	C.3	17	G17	0.000	
355	 O3'	18.946	32.468	-33.596	O.3	17	G17	0.000	
356	 C2'	19.259	30.431	-35.065	C.3	17	G17	0.000	
357	 O2'	20.609	30.272	-34.727	O.3	17	G17	0.000	
358	 C1'	18.635	29.056	-34.946	C.3	17	G17	0.000	
359	  N1	17.592	27.840	-39.767	N.pl3	17	G17	0.000	
360	  C2	18.790	28.004	-39.128	C.2	17	G17	0.000	
361	  N2	19.860	27.805	-39.901	N.pl3	17	G17	0.000	
362	  N3	18.933	28.326	-37.840	N.2	17	G17	0.000	
363	  C4	17.738	28.489	-37.218	C.2	17	G17	0.000	
364	  C5	16.477	28.358	-37.757	C.2	17	G17	0.000	
365	  C6	16.355	28.023	-39.141	C.2	17	G17	0.000	
366	  O6	15.317	27.863	-39.816	O.2	17	G17	0.000	
367	  N7	15.513	28.608	-36.791	N.2	17	G17	0.000	
368	  C8	16.196	28.885	-35.704	C.2	17	G17	0.000	
369	  N9	17.552	28.829	-35.899	N.pl3	17	G17	0.000	
370	 OP1	14.809	30.953	-30.464	O.co2	17	G17	0.000	
371	 OP2	13.623	30.453	-32.758	O.co2	17	G17	0.000	
372	   P	18.857	33.872	-34.387	P.3	18	U18	0.000	
373	 C5'	16.298	34.413	-34.765	C.3	18	U18	0.000	
374	 O5'	17.516	33.832	-35.251	O.3	18	U18	0.000	
375	 C4'	15.837	35.496	-35.700	C.3	18	U18	0.000	
376	 O4'	16.997	36.275	-36.009	O.3	18	U18	0.000	
377	 C3'	15.323	35.039	-37.041	C.3	18	U18	0.000	
378	 O3'	14.212	35.768	-37.371	O.3	18	U18	0.000	
379	 C2'	16.430	35.340	-38.029	C.3	18	U18	0.000	
380	 O2'	15.906	35.581	-39.320	O.3	18	U18	0.000	
381	 C1'	17.036	36.574	-37.382	C.3	18	U18	0.000	
382	  N1	18.452	36.859	-37.751	N.pl3	18	U18	0.000	
383	  C2	18.702	37.335	-39.007	C.2	18	U18	0.000	
384	  O2	17.809	37.538	-39.810	O.2	18	U18	0.000	
385	  N3	20.024	37.581	-39.272	N.pl3	18	U18	0.000	
386	  C4	21.080	37.354	-38.411	C.2	18	U18	0.000	
387	  O4	22.221	37.604	-38.761	O.2	18	U18	0.000	
388	  C5	20.746	36.853	-37.120	C.2	18	U18	0.000	
389	  C6	19.468	36.627	-36.848	C.2	18	U18	0.000	
390	 OP1	19.988	33.888	-35.347	O.co2	18	U18	0.000	
391	 OP2	18.720	34.936	-33.363	O.co2	18	U18	0.000	
392	   P	12.826	35.178	-36.898	P.3	19	U19	0.000	
393	 C5'	12.704	34.114	-39.278	C.3	19	U19	0.000	
394	 O5'	12.670	33.902	-37.855	O.3	19	U19	0.000	
395	 C4'	11.809	33.188	-40.128	C.3	19	U19	0.000	
396	 O4'	12.655	32.390	-41.006	O.3	19	U19	0.000	
397	 C3'	11.011	32.051	-39.488	C.3	19	U19	0.000	
398	 O3'	10.259	31.281	-40.490	O.3	19	U19	0.000	
399	 C2'	12.214	31.276	-38.935	C.3	19	U19	0.000	
400	 O2'	12.021	29.962	-38.460	O.3	19	U19	0.000	
401	 C1'	13.056	31.269	-40.224	C.3	19	U19	0.000	
402	  N1	14.552	31.290	-40.025	N.pl3	19	U19	0.000	
403	  C2	15.313	30.927	-41.108	C.2	19	U19	0.000	
404	  O2	14.834	30.634	-42.193	O.2	19	U19	0.000	
405	  N3	16.663	30.930	-40.894	N.pl3	19	U19	0.000	
406	  C4	17.301	31.258	-39.726	C.2	19	U19	0.000	
407	  O4	18.517	31.207	-39.684	O.2	19	U19	0.000	
408	  C5	16.445	31.618	-38.640	C.2	19	U19	0.000	
409	  C6	15.127	31.628	-38.819	C.2	19	U19	0.000	
410	 OP1	11.707	36.015	-37.402	O.co2	19	U19	0.000	
411	 OP2	13.009	34.876	-35.443	O.co2	19	U19	0.000	
412	   P	9.521	31.911	-41.793	P.3	20	C20	0.000	
413	 C5'	11.332	31.236	-43.633	C.3	20	C20	0.000	
414	 O5'	10.719	32.236	-42.794	O.3	20	C20	0.000	
415	 C4'	12.061	31.928	-44.782	C.3	20	C20	0.000	
416	 O4'	12.581	33.205	-44.303	O.3	20	C20	0.000	
417	 C3'	13.305	31.273	-45.373	C.3	20	C20	0.000	
418	 O3'	13.028	30.196	-46.243	O.3	20	C20	0.000	
419	 C2'	13.828	32.490	-46.134	C.3	20	C20	0.000	
420	 O2'	13.051	32.810	-47.279	O.3	20	C20	0.000	
421	 C1'	13.714	33.583	-45.061	C.3	20	C20	0.000	
422	  N1	14.870	33.769	-44.110	N.pl3	20	C20	0.000	
423	  C2	16.169	33.943	-44.583	C.2	20	C20	0.000	
424	  O2	16.404	33.942	-45.788	O.2	20	C20	0.000	
425	  N3	17.175	34.112	-43.705	N.2	20	C20	0.000	
426	  C4	16.956	34.136	-42.409	C.2	20	C20	0.000	
427	  N4	18.007	34.324	-41.614	N.pl3	20	C20	0.000	
428	  C5	15.648	33.968	-41.890	C.2	20	C20	0.000	
429	  C6	14.644	33.804	-42.766	C.2	20	C20	0.000	
430	 OP1	8.974	33.203	-41.321	O.co2	20	C20	0.000	
431	 OP2	8.632	30.924	-42.456	O.co2	20	C20	0.000	
432	   P	13.620	28.704	-46.080	P.3	21	A21	0.000	
433	 C5'	15.199	29.235	-48.187	C.3	21	A21	0.000	
434	 O5'	15.002	28.638	-46.894	O.3	21	A21	0.000	
435	 C4'	16.529	29.972	-48.187	C.3	21	A21	0.000	
436	 O4'	16.694	30.683	-46.943	O.3	21	A21	0.000	
437	 C3'	17.800	29.140	-48.103	C.3	21	A21	0.000	
438	 O3'	18.155	28.432	-49.273	O.3	21	A21	0.000	
439	 C2'	18.857	30.175	-47.799	C.3	21	A21	0.000	
440	 O2'	19.335	30.796	-48.972	O.3	21	A21	0.000	
441	 C1'	18.052	31.107	-46.902	C.3	21	A21	0.000	
442	  N1	22.142	31.598	-43.828	N.2	21	A21	0.000	
443	  C2	21.998	31.602	-45.160	C.2	21	A21	0.000	
444	  N3	20.896	31.460	-45.908	N.2	21	A21	0.000	
445	  C4	19.829	31.304	-45.137	C.2	21	A21	0.000	
446	  C5	19.808	31.280	-43.761	C.2	21	A21	0.000	
447	  C6	21.027	31.431	-43.100	C.2	21	A21	0.000	
448	  N6	21.098	31.410	-41.782	N.pl3	21	A21	0.000	
449	  N7	18.522	31.117	-43.286	N.2	21	A21	0.000	
450	  C8	17.793	31.021	-44.382	C.2	21	A21	0.000	
451	  N9	18.533	31.134	-45.532	N.pl3	21	A21	0.000	
452	 OP1	12.683	27.864	-46.869	O.co2	21	A21	0.000	
453	 OP2	13.902	28.406	-44.658	O.co2	21	A21	0.000	
454	   P	18.128	26.832	-49.142	P.3	22	C22	0.000	
455	 C5'	20.436	26.138	-48.102	C.3	22	C22	0.000	
456	 O5'	19.107	26.536	-47.895	O.3	22	C22	0.000	
457	 C4'	21.246	26.568	-46.918	C.3	22	C22	0.000	
458	 O4'	20.578	27.683	-46.302	O.3	22	C22	0.000	
459	 C3'	21.299	25.572	-45.786	C.3	22	C22	0.000	
460	 O3'	22.226	24.548	-46.105	O.3	22	C22	0.000	
461	 C2'	21.643	26.438	-44.564	C.3	22	C22	0.000	
462	 O2'	22.978	26.876	-44.377	O.3	22	C22	0.000	
463	 C1'	20.765	27.633	-44.893	C.3	22	C22	0.000	
464	  N1	19.445	27.577	-44.236	N.pl3	22	C22	0.000	
465	  C2	19.426	27.684	-42.838	C.2	22	C22	0.000	
466	  O2	20.496	27.803	-42.212	O.2	22	C22	0.000	
467	  N3	18.217	27.658	-42.217	N.2	22	C22	0.000	
468	  C4	17.094	27.546	-42.944	C.2	22	C22	0.000	
469	  N4	15.933	27.527	-42.286	N.pl3	22	C22	0.000	
470	  C5	17.103	27.450	-44.369	C.2	22	C22	0.000	
471	  C6	18.292	27.455	-44.975	C.2	22	C22	0.000	
472	 OP1	18.700	26.290	-50.416	O.co2	22	C22	0.000	
473	 OP2	16.733	26.490	-48.717	O.co2	22	C22	0.000	
474	   P	21.748	23.041	-45.867	P.3	23	A23	0.000	
475	 C5'	23.241	22.770	-43.753	C.3	23	A23	0.000	
476	 O5'	21.918	22.893	-44.264	O.3	23	A23	0.000	
477	 C4'	23.319	23.048	-42.268	C.3	23	A23	0.000	
478	 O4'	22.688	24.319	-41.994	O.3	23	A23	0.000	
479	 C3'	22.537	22.146	-41.319	C.3	23	A23	0.000	
480	 O3'	23.114	20.855	-41.124	O.3	23	A23	0.000	
481	 C2'	22.521	23.009	-40.059	C.3	23	A23	0.000	
482	 O2'	23.778	23.254	-39.454	O.3	23	A23	0.000	
483	 C1'	22.034	24.276	-40.727	C.3	23	A23	0.000	
484	  N1	17.491	24.975	-38.483	N.2	23	A23	0.000	
485	  C2	18.729	24.915	-37.979	C.2	23	A23	0.000	
486	  N3	19.880	24.719	-38.629	N.2	23	A23	0.000	
487	  C4	19.662	24.567	-39.951	C.2	23	A23	0.000	
488	  C5	18.445	24.606	-40.608	C.2	23	A23	0.000	
489	  C6	17.314	24.811	-39.811	C.2	23	A23	0.000	
490	  N6	16.095	24.860	-40.341	N.pl3	23	A23	0.000	
491	  N7	18.590	24.421	-41.971	N.2	23	A23	0.000	
492	  C8	19.890	24.277	-42.110	C.2	23	A23	0.000	
493	  N9	20.592	24.352	-40.932	N.pl3	23	A23	0.000	
494	 OP1	22.723	22.134	-46.545	O.co2	23	A23	0.000	
495	 OP2	20.318	23.010	-46.274	O.co2	23	A23	0.000	
496	   P	22.107	19.599	-41.155	P.3	24	G24	0.000	
497	 C5'	22.530	19.726	-38.521	C.3	24	G24	0.000	
498	 O5'	21.631	19.462	-39.610	O.3	24	G24	0.000	
499	 C4'	21.843	19.905	-37.172	C.3	24	G24	0.000	
500	 O4'	21.236	21.217	-37.129	O.3	24	G24	0.000	
501	 C3'	20.657	19.038	-36.747	C.3	24	G24	0.000	
502	 O3'	20.970	17.696	-36.341	O.3	24	G24	0.000	
503	 C2'	20.218	19.866	-35.537	C.3	24	G24	0.000	
504	 O2'	21.117	19.817	-34.440	O.3	24	G24	0.000	
505	 C1'	20.178	21.236	-36.180	C.3	24	G24	0.000	
506	  N1	15.122	21.952	-35.896	N.pl3	24	G24	0.000	
507	  C2	16.017	21.784	-34.873	C.2	24	G24	0.000	
508	  N2	15.456	21.799	-33.660	N.pl3	24	G24	0.000	
509	  N3	17.337	21.594	-35.025	N.2	24	G24	0.000	
510	  C4	17.682	21.608	-36.340	C.2	24	G24	0.000	
511	  C5	16.852	21.779	-37.428	C.2	24	G24	0.000	
512	  C6	15.480	21.968	-37.235	C.2	24	G24	0.000	
513	  O6	14.633	22.113	-38.113	O.2	24	G24	0.000	
514	  N7	17.543	21.730	-38.618	N.2	24	G24	0.000	
515	  C8	18.775	21.539	-38.241	C.2	24	G24	0.000	
516	  N9	18.931	21.458	-36.880	N.pl3	24	G24	0.000	
517	 OP1	22.948	18.440	-41.513	O.co2	24	G24	0.000	
518	 OP2	20.932	19.928	-42.008	O.co2	24	G24	0.000	
519	   P	19.936	16.459	-36.473	P.3	25	G25	0.000	
520	 C5'	19.093	16.524	-34.024	C.3	25	G25	0.000	
521	 O5'	18.776	16.654	-35.382	O.3	25	G25	0.000	
522	 C4'	17.878	16.843	-33.194	C.3	25	G25	0.000	
523	 O4'	17.429	18.201	-33.415	O.3	25	G25	0.000	
524	 C3'	16.650	16.025	-33.521	C.3	25	G25	0.000	
525	 O3'	16.741	14.772	-32.886	O.3	25	G25	0.000	
526	 C2'	15.586	16.883	-32.878	C.3	25	G25	0.000	
527	 O2'	15.682	16.796	-31.471	O.3	25	G25	0.000	
528	 C1'	16.023	18.235	-33.406	C.3	25	G25	0.000	
529	  N1	12.053	19.122	-36.508	N.pl3	25	G25	0.000	
530	  C2	12.056	18.896	-35.160	C.2	25	G25	0.000	
531	  N2	10.848	18.902	-34.591	N.pl3	25	G25	0.000	
532	  N3	13.146	18.671	-34.430	N.2	25	G25	0.000	
533	  C4	14.276	18.693	-35.184	C.2	25	G25	0.000	
534	  C5	14.368	18.897	-36.533	C.2	25	G25	0.000	
535	  C6	13.215	19.151	-37.260	C.2	25	G25	0.000	
536	  O6	13.159	19.351	-38.460	O.2	25	G25	0.000	
537	  N7	15.667	18.850	-36.968	N.2	25	G25	0.000	
538	  C8	16.363	18.614	-35.884	C.2	25	G25	0.000	
539	  N9	15.580	18.508	-34.758	N.pl3	25	G25	0.000	
540	 OP1	20.734	15.280	-36.048	O.co2	25	G25	0.000	
541	 OP2	19.335	16.519	-37.827	O.co2	25	G25	0.000	
542	   P	16.099	13.466	-33.552	P.3	26	C26	0.000	
543	 C5'	13.879	13.714	-32.282	C.3	26	C26	0.000	
544	 O5'	14.517	13.724	-33.532	O.3	26	C26	0.000	
545	 C4'	12.377	13.745	-32.402	C.3	26	C26	0.000	
546	 O4'	11.928	15.005	-32.938	O.3	26	C26	0.000	
547	 C3'	11.799	12.721	-33.352	C.3	26	C26	0.000	
548	 O3'	11.686	11.460	-32.675	O.3	26	C26	0.000	
549	 C2'	10.470	13.370	-33.631	C.3	26	C26	0.000	
550	 O2'	9.689	13.200	-32.460	O.3	26	C26	0.000	
551	 C1'	10.882	14.822	-33.875	C.3	26	C26	0.000	
552	  N1	11.370	15.175	-35.288	N.pl3	26	C26	0.000	
553	  C2	10.460	15.439	-36.344	C.2	26	C26	0.000	
554	  O2	9.239	15.376	-36.141	O.2	26	C26	0.000	
555	  N3	10.938	15.757	-37.586	N.2	26	C26	0.000	
556	  C4	12.248	15.821	-37.814	C.2	26	C26	0.000	
557	  N4	12.662	16.119	-39.039	N.pl3	26	C26	0.000	
558	  C5	13.190	15.577	-36.779	C.2	26	C26	0.000	
559	  C6	12.725	15.271	-35.548	C.2	26	C26	0.000	
560	 OP1	16.533	12.469	-32.547	O.co2	26	C26	0.000	
561	 OP2	16.496	13.381	-34.975	O.co2	26	C26	0.000	
562	   P	12.119	10.113	-33.408	P.3	27	U27	0.000	
563	 C5'	9.653	9.492	-33.733	C.3	27	U27	0.000	
564	 O5'	10.849	9.894	-34.330	O.3	27	U27	0.000	
565	 C4'	8.542	9.673	-34.737	C.3	27	U27	0.000	
566	 O4'	8.436	11.077	-35.085	O.3	27	U27	0.000	
567	 C3'	8.721	9.010	-36.094	C.3	27	U27	0.000	
568	 O3'	8.365	7.653	-36.025	O.3	27	U27	0.000	
569	 C2'	7.662	9.784	-36.858	C.3	27	U27	0.000	
570	 O2'	6.345	9.473	-36.448	O.3	27	U27	0.000	
571	 C1'	7.958	11.193	-36.415	C.3	27	U27	0.000	
572	  N1	8.935	11.806	-37.340	N.pl3	27	U27	0.000	
573	  C2	8.449	12.307	-38.531	C.2	27	U27	0.000	
574	  O2	7.270	12.256	-38.845	O.2	27	U27	0.000	
575	  N3	9.386	12.857	-39.368	N.pl3	27	U27	0.000	
576	  C4	10.741	12.969	-39.104	C.2	27	U27	0.000	
577	  O4	11.476	13.500	-39.938	O.2	27	U27	0.000	
578	  C5	11.185	12.428	-37.835	C.2	27	U27	0.000	
579	  C6	10.281	11.879	-37.012	C.2	27	U27	0.000	
580	 OP1	12.230	9.061	-32.397	O.co2	27	U27	0.000	
581	 OP2	13.292	10.370	-34.263	O.co2	27	U27	0.000	
582	   P	9.205	6.378	-36.500	P.3	28	G28	0.000	
583	 C5'	7.942	5.821	-38.678	C.3	28	G28	0.000	
584	 O5'	9.092	6.363	-38.085	O.3	28	G28	0.000	
585	 C4'	7.626	6.532	-39.972	C.3	28	G28	0.000	
586	 O4'	7.666	7.988	-39.823	O.3	28	G28	0.000	
587	 C3'	8.615	6.280	-41.098	C.3	28	G28	0.000	
588	 O3'	8.465	5.042	-41.736	O.3	28	G28	0.000	
589	 C2'	8.140	7.370	-42.024	C.3	28	G28	0.000	
590	 O2'	6.849	7.049	-42.528	O.3	28	G28	0.000	
591	 C1'	8.137	8.549	-41.050	C.3	28	G28	0.000	
592	  N1	11.636	11.856	-43.000	N.pl3	28	G28	0.000	
593	  C2	10.436	11.478	-43.510	C.2	28	G28	0.000	
594	  N2	10.125	12.046	-44.674	N.pl3	28	G28	0.000	
595	  N3	9.601	10.623	-42.917	N.2	28	G28	0.000	
596	  C4	10.066	10.113	-41.746	C.2	28	G28	0.000	
597	  C5	11.264	10.423	-41.161	C.2	28	G28	0.000	
598	  C6	12.138	11.348	-41.802	C.2	28	G28	0.000	
599	  O6	13.247	11.754	-41.404	O.2	28	G28	0.000	
600	  N7	11.410	9.735	-39.970	N.2	28	G28	0.000	
601	  C8	10.319	9.038	-39.859	C.2	28	G28	0.000	
602	  N9	9.449	9.201	-40.900	N.pl3	28	G28	0.000	
603	 OP1	8.318	5.295	-36.010	O.co2	28	G28	0.000	
604	 OP2	10.629	6.420	-36.087	O.co2	28	G28	0.000	
605	   P	9.545	3.886	-41.551	P.3	29	A29	0.000	
606	 C5'	11.524	3.982	-43.250	C.3	29	A29	0.000	
607	 O5'	10.186	3.643	-42.977	O.3	29	A29	0.000	
608	 C4'	11.560	4.246	-44.736	C.3	29	A29	0.000	
609	 O4'	10.282	3.847	-45.244	O.3	29	A29	0.000	
610	 C3'	11.593	5.682	-45.178	C.3	29	A29	0.000	
611	 O3'	12.900	6.198	-45.104	O.3	29	A29	0.000	
612	 C2'	11.084	5.574	-46.594	C.3	29	A29	0.000	
613	 O2'	12.137	5.223	-47.451	O.3	29	A29	0.000	
614	 C1'	10.045	4.468	-46.474	C.3	29	A29	0.000	
615	  N1	6.354	7.147	-48.745	N.2	29	A29	0.000	
616	  C2	7.654	6.964	-49.019	C.2	29	A29	0.000	
617	  N3	8.568	6.250	-48.382	N.2	29	A29	0.000	
618	  C4	8.010	5.676	-47.321	C.2	29	A29	0.000	
619	  C5	6.698	5.772	-46.889	C.2	29	A29	0.000	
620	  C6	5.833	6.561	-47.665	C.2	29	A29	0.000	
621	  N6	4.547	6.786	-47.401	N.pl3	29	A29	0.000	
622	  N7	6.510	5.031	-45.734	N.2	29	A29	0.000	
623	  C8	7.694	4.513	-45.507	C.2	29	A29	0.000	
624	  N9	8.647	4.866	-46.430	N.pl3	29	A29	0.000	
625	 OP1	8.682	2.707	-41.328	O.co2	29	A29	0.000	
626	 OP2	10.611	4.308	-40.615	O.co2	29	A29	0.000	
627	   P	13.028	7.586	-44.336	P.3	30	G30	0.000	
628	 C5'	13.164	9.022	-46.400	C.3	30	G30	0.000	
629	 O5'	12.328	8.474	-45.441	O.3	30	G30	0.000	
630	 C4'	12.349	9.683	-47.473	C.3	30	G30	0.000	
631	 O4'	11.249	8.827	-47.821	O.3	30	G30	0.000	
632	 C3'	11.720	10.986	-47.058	C.3	30	G30	0.000	
633	 O3'	12.624	12.045	-47.267	O.3	30	G30	0.000	
634	 C2'	10.558	11.035	-48.029	C.3	30	G30	0.000	
635	 O2'	10.931	11.368	-49.353	O.3	30	G30	0.000	
636	 C1'	10.083	9.599	-48.003	C.3	30	G30	0.000	
637	  N1	5.180	9.811	-46.666	N.pl3	30	G30	0.000	
638	  C2	5.860	10.215	-47.766	C.2	30	G30	0.000	
639	  N2	5.060	10.788	-48.661	N.pl3	30	G30	0.000	
640	  N3	7.140	10.114	-48.009	N.2	30	G30	0.000	
641	  C4	7.776	9.513	-46.995	C.2	30	G30	0.000	
642	  C5	7.266	9.039	-45.823	C.2	30	G30	0.000	
643	  C6	5.866	9.152	-45.566	C.2	30	G30	0.000	
644	  O6	5.293	8.746	-44.540	O.2	30	G30	0.000	
645	  N7	8.279	8.503	-45.057	N.2	30	G30	0.000	
646	  C8	9.352	8.657	-45.764	C.2	30	G30	0.000	
647	  N9	9.116	9.272	-46.958	N.pl3	30	G30	0.000	
648	 OP1	14.462	7.913	-44.234	O.co2	30	G30	0.000	
649	 OP2	12.224	7.593	-43.084	O.co2	30	G30	0.000	
650	   P	13.299	12.849	-46.059	P.3	31	A31	0.000	
651	 C5'	11.507	14.558	-46.859	C.3	31	A31	0.000	
652	 O5'	12.253	14.012	-45.777	O.3	31	A31	0.000	
653	 C4'	10.709	15.746	-46.378	C.3	31	A31	0.000	
654	 O4'	9.610	15.212	-45.606	O.3	31	A31	0.000	
655	 C3'	11.534	16.652	-45.480	C.3	31	A31	0.000	
656	 O3'	11.453	18.039	-45.906	O.3	31	A31	0.000	
657	 C2'	10.971	16.330	-44.094	C.3	31	A31	0.000	
658	 O2'	11.079	17.428	-43.185	O.3	31	A31	0.000	
659	 C1'	9.522	15.958	-44.444	C.3	31	A31	0.000	
660	  N1	4.856	15.001	-42.485	N.2	31	A31	0.000	
661	  C2	5.290	15.593	-43.611	C.2	31	A31	0.000	
662	  N3	6.537	15.806	-44.081	N.2	31	A31	0.000	
663	  C4	7.424	15.300	-43.234	C.2	31	A31	0.000	
664	  C5	7.148	14.663	-42.033	C.2	31	A31	0.000	
665	  C6	5.786	14.515	-41.647	C.2	31	A31	0.000	
666	  N6	5.384	13.916	-40.517	N.pl3	31	A31	0.000	
667	  N7	8.331	14.295	-41.421	N.2	31	A31	0.000	
668	  C8	9.258	14.708	-42.252	C.2	31	A31	0.000	
669	  N9	8.777	15.310	-43.375	N.pl3	31	A31	0.000	
670	 OP1	14.521	13.436	-46.666	O.co2	31	A31	0.000	
671	 OP2	13.361	12.052	-44.821	O.co2	31	A31	0.000	
672	   P	12.630	18.732	-46.786	P.3	32	A32	0.000	
673	 C5'	11.432	18.531	-49.114	C.3	32	A32	0.000	
674	 O5'	12.450	18.078	-48.242	O.3	32	A32	0.000	
675	 C4'	11.836	18.231	-50.534	C.3	32	A32	0.000	
676	 O4'	10.743	18.363	-51.478	O.3	32	A32	0.000	
677	 C3'	12.862	19.202	-51.055	C.3	32	A32	0.000	
678	 O3'	13.714	18.453	-51.870	O.3	32	A32	0.000	
679	 C2'	11.990	20.219	-51.810	C.3	32	A32	0.000	
680	 O2'	12.717	21.113	-52.647	O.3	32	A32	0.000	
681	 C1'	11.090	19.222	-52.541	C.3	32	A32	0.000	
682	  N1	6.592	21.390	-51.419	N.2	32	A32	0.000	
683	  C2	7.673	21.096	-50.672	C.2	32	A32	0.000	
684	  N3	8.821	20.515	-51.049	N.2	32	A32	0.000	
685	  C4	8.806	20.239	-52.371	C.2	32	A32	0.000	
686	  C5	7.776	20.482	-53.277	C.2	32	A32	0.000	
687	  C6	6.621	21.089	-52.743	C.2	32	A32	0.000	
688	  N6	5.567	21.390	-53.500	N.pl3	32	A32	0.000	
689	  N7	8.113	20.075	-54.556	N.2	32	A32	0.000	
690	  C8	9.335	19.594	-54.389	C.2	32	A32	0.000	
691	  N9	9.818	19.672	-53.097	N.pl3	32	A32	0.000	
692	 OP1	13.954	18.363	-46.243	O.co2	32	A32	0.000	
693	 OP2	12.301	20.170	-46.857	O.co2	32	A32	0.000	
694	   P	15.287	18.669	-51.861	P.3	33	A33	0.000	
695	 C5'	15.338	16.978	-49.812	C.3	33	A33	0.000	
696	 O5'	15.847	17.398	-51.075	O.3	33	A33	0.000	
697	 C4'	15.519	15.484	-49.672	C.3	33	A33	0.000	
698	 O4'	14.236	14.863	-49.380	O.3	33	A33	0.000	
699	 C3'	16.076	14.809	-50.920	C.3	33	A33	0.000	
700	 O3'	17.513	14.926	-50.883	O.3	33	A33	0.000	
701	 C2'	15.437	13.428	-50.755	C.3	33	A33	0.000	
702	 O2'	16.047	12.635	-49.746	O.3	33	A33	0.000	
703	 C1'	14.026	13.801	-50.281	C.3	33	A33	0.000	
704	  N1	12.603	15.574	-54.973	N.2	33	A33	0.000	
705	  C2	13.795	15.117	-54.555	C.2	33	A33	0.000	
706	  N3	14.127	14.655	-53.349	N.2	33	A33	0.000	
707	  C4	13.081	14.704	-52.509	C.2	33	A33	0.000	
708	  C5	11.803	15.147	-52.802	C.2	33	A33	0.000	
709	  C6	11.567	15.601	-54.098	C.2	33	A33	0.000	
710	  N6	10.366	16.046	-54.457	N.pl3	33	A33	0.000	
711	  N7	10.958	15.056	-51.729	N.2	33	A33	0.000	
712	  C8	11.732	14.584	-50.802	C.2	33	A33	0.000	
713	  N9	13.017	14.340	-51.191	N.pl3	33	A33	0.000	
714	 OP1	15.681	19.865	-51.070	O.co2	33	A33	0.000	
715	 OP2	15.644	18.486	-53.294	O.co2	33	A33	0.000	
716	   P	18.514	14.362	-52.013	P.3	34	G34	0.000	
717	 C5'	18.998	11.930	-52.655	C.3	34	G34	0.000	
718	 O5'	18.251	12.810	-51.864	O.3	34	G34	0.000	
719	 C4'	18.238	10.633	-52.790	C.3	34	G34	0.000	
720	 O4'	17.267	10.513	-51.722	O.3	34	G34	0.000	
721	 C3'	17.422	10.496	-54.058	C.3	34	G34	0.000	
722	 O3'	18.335	10.301	-55.156	O.3	34	G34	0.000	
723	 C2'	16.613	9.288	-53.610	C.3	34	G34	0.000	
724	 O2'	17.361	8.098	-53.611	O.3	34	G34	0.000	
725	 C1'	16.303	9.585	-52.148	C.3	34	G34	0.000	
726	  N1	11.888	11.552	-53.848	N.pl3	34	G34	0.000	
727	  C2	13.020	11.214	-54.540	C.2	34	G34	0.000	
728	  N2	12.995	11.400	-55.854	N.pl3	34	G34	0.000	
729	  N3	14.117	10.714	-54.011	N.2	34	G34	0.000	
730	  C4	14.006	10.571	-52.684	C.2	34	G34	0.000	
731	  C5	12.932	10.870	-51.892	C.2	34	G34	0.000	
732	  C6	11.760	11.408	-52.472	C.2	34	G34	0.000	
733	  O6	10.711	11.743	-51.894	O.2	34	G34	0.000	
734	  N7	13.204	10.580	-50.574	N.2	34	G34	0.000	
735	  C8	14.413	10.119	-50.596	C.2	34	G34	0.000	
736	  N9	14.966	10.085	-51.844	N.pl3	34	G34	0.000	
737	 OP1	19.902	14.586	-51.541	O.co2	34	G34	0.000	
738	 OP2	18.104	14.774	-53.373	O.co2	34	G34	0.000	
739	   P	17.930	9.954	-56.684	P.3	35	U35	0.000	
740	 C5'	16.533	7.756	-57.309	C.3	35	U35	0.000	
741	 O5'	16.661	8.981	-56.591	O.3	35	U35	0.000	
742	 C4'	15.158	7.149	-57.037	C.3	35	U35	0.000	
743	 O4'	14.197	7.565	-58.049	O.3	35	U35	0.000	
744	 C3'	15.072	5.622	-57.027	C.3	35	U35	0.000	
745	 O3'	14.550	5.126	-55.789	O.3	35	U35	0.000	
746	 C2'	14.119	5.349	-58.196	C.3	35	U35	0.000	
747	 O2'	13.337	4.181	-58.090	O.3	35	U35	0.000	
748	 C1'	13.217	6.558	-58.085	C.3	35	U35	0.000	
749	  N1	12.214	6.768	-59.190	N.pl3	35	U35	0.000	
750	  C2	12.623	6.999	-60.485	C.2	35	U35	0.000	
751	  O2	13.794	7.037	-60.803	O.2	35	U35	0.000	
752	  N3	11.606	7.182	-61.404	N.pl3	35	U35	0.000	
753	  C4	10.234	7.162	-61.174	C.2	35	U35	0.000	
754	  O4	9.428	7.343	-62.092	O.2	35	U35	0.000	
755	  C5	9.886	6.914	-59.797	C.2	35	U35	0.000	
756	  C6	10.863	6.733	-58.886	C.2	35	U35	0.000	
757	 OP1	19.034	9.173	-57.290	O.co2	35	U35	0.000	
758	 OP2	17.495	11.238	-57.284	O.co2	35	U35	0.000	
759	   P	15.351	5.122	-54.388	P.3	36	C36	0.000	
760	 C5'	14.413	5.209	-51.972	C.3	36	C36	0.000	
761	 O5'	14.141	5.175	-53.341	O.3	36	C36	0.000	
762	 C4'	13.227	5.725	-51.192	C.3	36	C36	0.000	
763	 O4'	13.076	7.159	-51.361	O.3	36	C36	0.000	
764	 C3'	11.867	5.203	-51.598	C.3	36	C36	0.000	
765	 O3'	11.708	3.867	-51.144	O.3	36	C36	0.000	
766	 C2'	10.965	6.244	-50.915	C.3	36	C36	0.000	
767	 O2'	10.838	6.159	-49.507	O.3	36	C36	0.000	
768	 C1'	11.705	7.524	-51.293	C.3	36	C36	0.000	
769	  N1	11.291	8.028	-52.605	N.pl3	36	C36	0.000	
770	  C2	9.985	8.491	-52.793	C.2	36	C36	0.000	
771	  O2	9.172	8.499	-51.861	O.2	36	C36	0.000	
772	  N3	9.646	8.934	-54.030	N.2	36	C36	0.000	
773	  C4	10.525	8.923	-55.042	C.2	36	C36	0.000	
774	  N4	10.123	9.358	-56.236	N.pl3	36	C36	0.000	
775	  C5	11.853	8.453	-54.865	C.2	36	C36	0.000	
776	  C6	12.185	8.021	-53.644	C.2	36	C36	0.000	
777	 OP1	16.156	6.346	-54.240	O.co2	36	C36	0.000	
778	 OP2	16.047	3.833	-54.230	O.co2	36	C36	0.000	
779	   P	10.890	2.763	-51.979	P.3	37	C37	0.000	
780	 C5'	8.819	3.197	-50.466	C.3	37	C37	0.000	
781	 O5'	9.388	3.206	-51.759	O.3	37	C37	0.000	
782	 C4'	7.470	3.829	-50.627	C.3	37	C37	0.000	
783	 O4'	7.788	5.102	-51.199	O.3	37	C37	0.000	
784	 C3'	6.568	3.228	-51.689	C.3	37	C37	0.000	
785	 O3'	5.785	2.141	-51.233	O.3	37	C37	0.000	
786	 C2'	5.716	4.415	-52.080	C.3	37	C37	0.000	
787	 O2'	4.636	4.613	-51.213	O.3	37	C37	0.000	
788	 C1'	6.711	5.564	-51.976	C.3	37	C37	0.000	
789	  N1	7.166	5.967	-53.314	N.pl3	37	C37	0.000	
790	  C2	6.237	6.615	-54.135	C.2	37	C37	0.000	
791	  O2	5.099	6.842	-53.707	O.2	37	C37	0.000	
792	  N3	6.602	6.967	-55.385	N.2	37	C37	0.000	
793	  C4	7.837	6.709	-55.800	C.2	37	C37	0.000	
794	  N4	8.149	7.095	-57.033	N.pl3	37	C37	0.000	
795	  C5	8.803	6.048	-54.981	C.2	37	C37	0.000	
796	  C6	8.430	5.692	-53.750	C.2	37	C37	0.000	
797	 OP1	11.074	1.517	-51.206	O.co2	37	C37	0.000	
798	 OP2	11.171	2.842	-53.432	O.co2	37	C37	0.000	
799	   P	5.338	1.019	-52.283	P.3	38	C38	0.000	
800	 C5'	3.039	2.172	-52.398	C.3	38	C38	0.000	
801	 O5'	4.168	1.715	-53.100	O.3	38	C38	0.000	
802	 C4'	2.095	2.941	-53.297	C.3	38	C38	0.000	
803	 O4'	2.628	4.224	-53.694	O.3	38	C38	0.000	
804	 C3'	1.789	2.256	-54.608	C.3	38	C38	0.000	
805	 O3'	0.848	1.271	-54.345	O.3	38	C38	0.000	
806	 C2'	1.238	3.431	-55.400	C.3	38	C38	0.000	
807	 O2'	-0.024	3.904	-54.961	O.3	38	C38	0.000	
808	 C1'	2.287	4.461	-55.055	C.3	38	C38	0.000	
809	  N1	3.522	4.449	-55.901	N.pl3	38	C38	0.000	
810	  C2	3.472	4.948	-57.195	C.2	38	C38	0.000	
811	  O2	2.402	5.361	-57.629	O.2	38	C38	0.000	
812	  N3	4.596	4.960	-57.947	N.2	38	C38	0.000	
813	  C4	5.742	4.523	-57.446	C.2	38	C38	0.000	
814	  N4	6.829	4.566	-58.216	N.pl3	38	C38	0.000	
815	  C5	5.818	4.020	-56.127	C.2	38	C38	0.000	
816	  C6	4.701	3.996	-55.404	C.2	38	C38	0.000	
817	 OP1	4.711	-0.001	-51.424	O.co2	38	C38	0.000	
818	 OP2	6.414	0.679	-53.256	O.co2	38	C38	0.000	
819	   P	0.617	0.056	-55.335	P.3	39	U39	0.000	
820	 C5'	-1.106	1.035	-56.925	C.3	39	U39	0.000	
821	 O5'	0.231	0.688	-56.730	O.3	39	U39	0.000	
822	 C4'	-1.204	1.604	-58.306	C.3	39	U39	0.000	
823	 O4'	-0.096	2.521	-58.492	O.3	39	U39	0.000	
824	 C3'	-1.030	0.578	-59.401	C.3	39	U39	0.000	
825	 O3'	-2.247	-0.127	-59.611	O.3	39	U39	0.000	
826	 C2'	-0.643	1.504	-60.547	C.3	39	U39	0.000	
827	 O2'	-1.781	2.116	-61.106	O.3	39	U39	0.000	
828	 C1'	0.212	2.571	-59.864	C.3	39	U39	0.000	
829	  N1	1.681	2.454	-60.027	N.pl3	39	U39	0.000	
830	  C2	2.219	2.745	-61.248	C.2	39	U39	0.000	
831	  O2	1.528	3.065	-62.197	O.2	39	U39	0.000	
832	  N3	3.583	2.650	-61.352	N.pl3	39	U39	0.000	
833	  C4	4.452	2.318	-60.341	C.2	39	U39	0.000	
834	  O4	5.665	2.269	-60.559	O.2	39	U39	0.000	
835	  C5	3.808	2.034	-59.090	C.2	39	U39	0.000	
836	  C6	2.479	2.115	-58.977	C.2	39	U39	0.000	
837	 OP1	-0.598	-0.621	-54.794	O.co2	39	U39	0.000	
838	 OP2	1.921	-0.598	-55.605	O.co2	39	U39	0.000	
839	   P	-2.260	-1.686	-59.993	P.3	40	U40	0.000	
840	 C5'	-4.396	-2.130	-58.607	C.3	40	U40	0.000	
841	 O5'	-3.812	-2.047	-59.892	O.3	40	U40	0.000	
842	 C4'	-5.861	-1.774	-58.669	C.3	40	U40	0.000	
843	 O4'	-5.962	-0.339	-58.820	O.3	40	U40	0.000	
844	 C3'	-6.639	-2.370	-59.837	C.3	40	U40	0.000	
845	 O3'	-7.906	-2.876	-59.421	O.3	40	U40	0.000	
846	 C2'	-6.856	-1.225	-60.808	C.3	40	U40	0.000	
847	 O2'	-8.068	-1.377	-61.532	O.3	40	U40	0.000	
848	 C1'	-6.869	-0.027	-59.855	C.3	40	U40	0.000	
849	  N1	-6.454	1.242	-60.514	N.pl3	40	U40	0.000	
850	  C2	-7.418	2.176	-60.807	C.2	40	U40	0.000	
851	  O2	-8.589	2.042	-60.532	O.2	40	U40	0.000	
852	  N3	-6.954	3.298	-61.434	N.pl3	40	U40	0.000	
853	  C4	-5.645	3.567	-61.785	C.2	40	U40	0.000	
854	  O4	-5.393	4.630	-62.345	O.2	40	U40	0.000	
855	  C5	-4.687	2.535	-61.465	C.2	40	U40	0.000	
856	  C6	-5.124	1.435	-60.848	C.2	40	U40	0.000	
857	 OP1	-1.567	-2.384	-58.890	O.co2	40	U40	0.000	
858	 OP2	-1.804	-1.845	-61.395	O.co2	40	U40	0.000	
859	   P	-8.224	-4.410	-59.702	P.3	41	U41	0.000	
860	 C5'	-8.701	-4.634	-57.152	C.3	41	U41	0.000	
861	 O5'	-7.884	-5.013	-58.259	O.3	41	U41	0.000	
862	 C4'	-8.078	-5.076	-55.844	C.3	41	U41	0.000	
863	 O4'	-7.780	-6.484	-55.944	O.3	41	U41	0.000	
864	 C3'	-6.736	-4.456	-55.480	C.3	41	U41	0.000	
865	 O3'	-6.518	-4.546	-54.119	O.3	41	U41	0.000	
866	 C2'	-5.712	-5.387	-56.091	C.3	41	U41	0.000	
867	 O2'	-4.424	-5.297	-55.502	O.3	41	U41	0.000	
868	 C1'	-6.401	-6.690	-55.717	C.3	41	U41	0.000	
869	  N1	-5.860	-7.817	-56.512	N.pl3	41	U41	0.000	
870	  C2	-5.111	-8.761	-55.842	C.2	41	U41	0.000	
871	  O2	-4.907	-8.720	-54.633	O.2	41	U41	0.000	
872	  N3	-4.623	-9.766	-56.652	N.pl3	41	U41	0.000	
873	  C4	-4.809	-9.906	-58.016	C.2	41	U41	0.000	
874	  O4	-4.307	-10.860	-58.581	O.2	41	U41	0.000	
875	  C5	-5.600	-8.881	-58.645	C.2	41	U41	0.000	
876	  C6	-6.080	-7.890	-57.880	C.2	41	U41	0.000	
877	 OP1	-7.258	-4.866	-60.730	O.co2	41	U41	0.000	
878	 OP2	-9.667	-4.598	-59.994	O.co2	41	U41	0.000	
879	   P	-6.540	-3.258	-53.219	P.3	42	G42	0.000	
880	 C5'	-4.465	-1.645	-53.684	C.3	42	G42	0.000	
881	 O5'	-5.691	-2.228	-54.122	O.3	42	G42	0.000	
882	 C4'	-4.202	-0.282	-54.308	C.3	42	G42	0.000	
883	 O4'	-4.785	-0.178	-55.632	O.3	42	G42	0.000	
884	 C3'	-4.836	0.939	-53.659	C.3	42	G42	0.000	
885	 O3'	-4.241	1.300	-52.448	O.3	42	G42	0.000	
886	 C2'	-4.590	2.002	-54.732	C.3	42	G42	0.000	
887	 O2'	-3.222	2.392	-54.854	O.3	42	G42	0.000	
888	 C1'	-5.085	1.194	-55.927	C.3	42	G42	0.000	
889	  N1	-8.974	3.759	-58.067	N.pl3	42	G42	0.000	
890	  C2	-7.649	4.135	-57.973	C.2	42	G42	0.000	
891	  N2	-7.310	5.316	-58.522	N.pl3	42	G42	0.000	
892	  N3	-6.715	3.393	-57.388	N.2	42	G42	0.000	
893	  C4	-7.219	2.235	-56.908	C.2	42	G42	0.000	
894	  C5	-8.519	1.796	-56.957	C.2	42	G42	0.000	
895	  C6	-9.503	2.580	-57.566	C.2	42	G42	0.000	
896	  O6	-10.702	2.334	-57.680	O.2	42	G42	0.000	
897	  N7	-8.654	0.575	-56.343	N.2	42	G42	0.000	
898	  C8	-7.453	0.296	-55.938	C.2	42	G42	0.000	
899	  N9	-6.521	1.260	-56.234	N.pl3	42	G42	0.000	
900	 OP1	-5.830	-3.577	-51.941	O.co2	42	G42	0.000	
901	 OP2	-7.978	-2.869	-53.232	O.co2	42	G42	0.000	
902	   P	-5.208	1.686	-51.253	P.3	43	A43	0.000	
903	 C5'	-3.152	3.007	-50.137	C.3	43	A43	0.000	
904	 O5'	-4.482	3.008	-50.725	O.3	43	A43	0.000	
905	 C4'	-3.226	3.601	-48.754	C.3	43	A43	0.000	
906	 O4'	-4.634	3.751	-48.476	O.3	43	A43	0.000	
907	 C3'	-2.688	2.743	-47.617	C.3	43	A43	0.000	
908	 O3'	-1.550	3.350	-46.969	O.3	43	A43	0.000	
909	 C2'	-3.877	2.580	-46.664	C.3	43	A43	0.000	
910	 O2'	-3.594	2.768	-45.291	O.3	43	A43	0.000	
911	 C1'	-4.773	3.718	-47.088	C.3	43	A43	0.000	
912	  N1	-9.347	5.965	-46.568	N.2	43	A43	0.000	
913	  C2	-8.132	6.480	-46.826	C.2	43	A43	0.000	
914	  N3	-6.968	5.838	-46.953	N.2	43	A43	0.000	
915	  C4	-7.123	4.512	-46.777	C.2	43	A43	0.000	
916	  C5	-8.304	3.849	-46.516	C.2	43	A43	0.000	
917	  C6	-9.469	4.626	-46.416	C.2	43	A43	0.000	
918	  N6	-10.663	4.092	-46.152	N.pl3	43	A43	0.000	
919	  N7	-8.097	2.498	-46.397	N.2	43	A43	0.000	
920	  C8	-6.813	2.361	-46.580	C.2	43	A43	0.000	
921	  N9	-6.170	3.535	-46.814	N.pl3	43	A43	0.000	
922	 OP1	-5.121	0.613	-50.246	O.co2	43	A43	0.000	
923	 OP2	-6.546	2.041	-51.754	O.co2	43	A43	0.000	
924	   P	-0.092	3.042	-47.533	P.3	44	A44	0.000	
925	 C5'	0.045	5.284	-48.906	C.3	44	A44	0.000	
926	 O5'	-0.179	3.908	-48.877	O.3	44	A44	0.000	
927	 C4'	1.083	5.679	-49.931	C.3	44	A44	0.000	
928	 O4'	0.706	5.230	-51.267	O.3	44	A44	0.000	
929	 C3'	1.224	7.185	-50.051	C.3	44	A44	0.000	
930	 O3'	2.116	7.693	-49.086	O.3	44	A44	0.000	
931	 C2'	1.777	7.300	-51.456	C.3	44	A44	0.000	
932	 O2'	3.162	6.997	-51.477	O.3	44	A44	0.000	
933	 C1'	0.971	6.245	-52.219	C.3	44	A44	0.000	
934	  N1	-1.327	8.511	-56.298	N.2	44	A44	0.000	
935	  C2	-0.023	8.342	-56.010	C.2	44	A44	0.000	
936	  N3	0.492	7.746	-54.924	N.2	44	A44	0.000	
937	  C4	-0.465	7.291	-54.072	C.2	44	A44	0.000	
938	  C5	-1.832	7.403	-54.254	C.2	44	A44	0.000	
939	  C6	-2.271	8.047	-55.428	C.2	44	A44	0.000	
940	  N6	-3.569	8.227	-55.714	N.pl3	44	A44	0.000	
941	  N7	-2.511	6.854	-53.202	N.2	44	A44	0.000	
942	  C8	-1.561	6.415	-52.414	C.2	44	A44	0.000	
943	  N9	-0.294	6.639	-52.864	N.pl3	44	A44	0.000	
944	 OP1	0.003	1.655	-48.035	O.co2	44	A44	0.000	
945	 OP2	0.938	3.450	-46.561	O.co2	44	A44	0.000	
946	   P	1.557	8.636	-47.919	P.3	45	C45	0.000	
947	 C5'	0.061	10.641	-48.611	C.3	45	C45	0.000	
948	 O5'	1.265	9.952	-48.743	O.3	45	C45	0.000	
949	 C4'	-0.380	11.107	-49.977	C.3	45	C45	0.000	
950	 O4'	-0.686	9.979	-50.824	O.3	45	C45	0.000	
951	 C3'	-1.688	11.854	-49.907	C.3	45	C45	0.000	
952	 O3'	-1.494	13.176	-49.352	O.3	45	C45	0.000	
953	 C2'	-2.225	11.706	-51.336	C.3	45	C45	0.000	
954	 O2'	-1.688	12.558	-52.338	O.3	45	C45	0.000	
955	 C1'	-1.857	10.242	-51.589	C.3	45	C45	0.000	
956	  N1	-2.997	9.306	-51.247	N.pl3	45	C45	0.000	
957	  C2	-4.112	9.281	-52.080	C.2	45	C45	0.000	
958	  O2	-4.131	10.010	-53.091	O.2	45	C45	0.000	
959	  N3	-5.143	8.458	-51.781	N.2	45	C45	0.000	
960	  C4	-5.098	7.685	-50.716	C.2	45	C45	0.000	
961	  N4	-6.139	6.906	-50.468	N.pl3	45	C45	0.000	
962	  C5	-3.986	7.683	-49.853	C.2	45	C45	0.000	
963	  C6	-2.974	8.504	-50.150	C.2	45	C45	0.000	
964	 OP1	2.694	8.980	-47.032	O.co2	45	C45	0.000	
965	 OP2	0.264	8.103	-47.408	O.co2	45	C45	0.000	
966	   P	-2.598	13.644	-48.285	P.3	46	C46	0.000	
967	 C5'	-3.363	14.845	-50.436	C.3	46	C46	0.000	
968	 O5'	-3.281	14.871	-49.025	O.3	46	C46	0.000	
969	 C4'	-4.767	14.985	-50.967	C.3	46	C46	0.000	
970	 O4'	-5.141	13.774	-51.654	O.3	46	C46	0.000	
971	 C3'	-5.897	15.204	-49.989	C.3	46	C46	0.000	
972	 O3'	-5.925	16.560	-49.675	O.3	46	C46	0.000	
973	 C2'	-7.083	14.814	-50.861	C.3	46	C46	0.000	
974	 O2'	-7.482	15.825	-51.758	O.3	46	C46	0.000	
975	 C1'	-6.543	13.589	-51.592	C.3	46	C46	0.000	
976	  N1	-6.897	12.354	-50.834	N.pl3	46	C46	0.000	
977	  C2	-8.186	11.841	-50.953	C.2	46	C46	0.000	
978	  O2	-9.001	12.375	-51.692	O.2	46	C46	0.000	
979	  N3	-8.517	10.746	-50.246	N.2	46	C46	0.000	
980	  C4	-7.628	10.158	-49.437	C.2	46	C46	0.000	
981	  N4	-8.038	9.067	-48.778	N.pl3	46	C46	0.000	
982	  C5	-6.302	10.672	-49.280	C.2	46	C46	0.000	
983	  C6	-5.986	11.764	-49.992	C.2	46	C46	0.000	
984	 OP1	-1.904	14.000	-47.045	O.co2	46	C46	0.000	
985	 OP2	-3.725	12.696	-48.232	O.co2	46	C46	0.000	
986	   P	-7.009	17.156	-48.686	P.3	47	U47	0.000	
987	 C5'	-9.492	16.999	-48.444	C.3	47	U47	0.000	
988	 O5'	-8.386	16.594	-49.188	O.3	47	U47	0.000	
989	 C4'	-10.728	16.761	-49.263	C.3	47	U47	0.000	
990	 O4'	-10.534	15.594	-50.088	O.3	47	U47	0.000	
991	 C3'	-11.957	16.484	-48.430	C.3	47	U47	0.000	
992	 O3'	-12.681	17.677	-48.311	O.3	47	U47	0.000	
993	 C2'	-12.682	15.445	-49.268	C.3	47	U47	0.000	
994	 O2'	-13.410	15.992	-50.357	O.3	47	U47	0.000	
995	 C1'	-11.515	14.619	-49.787	C.3	47	U47	0.000	
996	  N1	-10.966	13.563	-48.857	N.pl3	47	U47	0.000	
997	  C2	-11.799	12.600	-48.340	C.2	47	U47	0.000	
998	  O2	-12.986	12.541	-48.569	O.2	47	U47	0.000	
999	  N3	-11.191	11.689	-47.514	N.pl3	47	U47	0.000	
1000	  C4	-9.855	11.628	-47.159	C.2	47	U47	0.000	
1001	  O4	-9.451	10.743	-46.404	O.2	47	U47	0.000	
1002	  C5	-9.041	12.655	-47.737	C.2	47	U47	0.000	
1003	  C6	-9.618	13.551	-48.543	C.2	47	U47	0.000	
1004	 OP1	-7.101	18.594	-48.974	O.co2	47	U47	0.000	
1005	 OP2	-6.725	16.667	-47.311	O.co2	47	U47	0.000	
1006	   P	-12.602	18.567	-46.997	P.3	48	G48	0.000	
1007	 C5'	-14.926	17.565	-46.285	C.3	48	G48	0.000	
1008	 O5'	-13.515	17.706	-45.993	O.3	48	G48	0.000	
1009	 C4'	-15.561	16.367	-45.598	C.3	48	G48	0.000	
1010	 O4'	-14.898	15.163	-46.070	O.3	48	G48	0.000	
1011	 C3'	-15.421	16.273	-44.083	C.3	48	G48	0.000	
1012	 O3'	-16.425	16.985	-43.380	O.3	48	G48	0.000	
1013	 C2'	-15.628	14.774	-43.890	C.3	48	G48	0.000	
1014	 O2'	-16.999	14.423	-43.976	O.3	48	G48	0.000	
1015	 C1'	-14.827	14.170	-45.048	C.3	48	G48	0.000	
1016	  N1	-11.640	10.365	-43.730	N.pl3	48	G48	0.000	
1017	  C2	-12.994	10.345	-43.993	C.2	48	G48	0.000	
1018	  N2	-13.621	9.163	-43.893	N.pl3	48	G48	0.000	
1019	  N3	-13.707	11.417	-44.327	N.2	48	G48	0.000	
1020	  C4	-12.955	12.541	-44.390	C.2	48	G48	0.000	
1021	  C5	-11.595	12.659	-44.153	C.2	48	G48	0.000	
1022	  C6	-10.839	11.506	-43.790	C.2	48	G48	0.000	
1023	  O6	-9.622	11.395	-43.535	O.2	48	G48	0.000	
1024	  N7	-11.211	13.976	-44.328	N.2	48	G48	0.000	
1025	  C8	-12.317	14.607	-44.655	C.2	48	G48	0.000	
1026	  N9	-13.431	13.797	-44.718	N.pl3	48	G48	0.000	
1027	 OP1	-13.337	19.791	-47.356	O.co2	48	G48	0.000	
1028	 OP2	-11.206	18.681	-46.518	O.co2	48	G48	0.000	
1029	   P	-16.303	18.478	-42.796	P.3	49	A49	0.000	
1030	 C5'	-14.301	19.834	-41.727	C.3	49	A49	0.000	
1031	 O5'	-14.762	18.915	-42.734	O.3	49	A49	0.000	
1032	 C4'	-12.782	19.968	-41.661	C.3	49	A49	0.000	
1033	 O4'	-12.185	18.886	-40.892	O.3	49	A49	0.000	
1034	 C3'	-12.025	19.888	-42.988	C.3	49	A49	0.000	
1035	 O3'	-10.690	20.441	-42.920	O.3	49	A49	0.000	
1036	 C2'	-11.968	18.380	-43.196	C.3	49	A49	0.000	
1037	 O2'	-11.011	17.979	-44.147	O.3	49	A49	0.000	
1038	 C1'	-11.609	17.926	-41.779	C.3	49	A49	0.000	
1039	  N1	-10.376	12.995	-40.879	N.2	49	A49	0.000	
1040	  C2	-9.630	14.066	-41.196	C.2	49	A49	0.000	
1041	  N3	-10.023	15.324	-41.421	N.2	49	A49	0.000	
1042	  C4	-11.357	15.445	-41.286	C.2	49	A49	0.000	
1043	  C5	-12.255	14.442	-40.962	C.2	49	A49	0.000	
1044	  C6	-11.710	13.158	-40.755	C.2	49	A49	0.000	
1045	  N6	-12.448	12.101	-40.438	N.pl3	49	A49	0.000	
1046	  N7	-13.546	14.928	-40.909	N.2	49	A49	0.000	
1047	  C8	-13.403	16.198	-41.198	C.2	49	A49	0.000	
1048	  N9	-12.108	16.585	-41.438	N.pl3	49	A49	0.000	
1049	 OP1	-16.785	18.395	-41.397	O.co2	49	A49	0.000	
1050	 OP2	-17.001	19.336	-43.786	O.co2	49	A49	0.000	
1051	   P	-10.414	21.949	-42.451	P.3	50	A50	0.000	
1052	 C5'	-9.390	22.143	-40.011	C.3	50	A50	0.000	
1053	 O5'	-10.464	21.814	-40.862	O.3	50	A50	0.000	
1054	 C4'	-9.855	22.156	-38.555	C.3	50	A50	0.000	
1055	 O4'	-9.895	23.507	-38.013	O.3	50	A50	0.000	
1056	 C3'	-11.256	21.605	-38.262	C.3	50	A50	0.000	
1057	 O3'	-11.234	20.896	-37.024	O.3	50	A50	0.000	
1058	 C2'	-12.149	22.851	-38.210	C.3	50	A50	0.000	
1059	 O2'	-13.338	22.633	-37.464	O.3	50	A50	0.000	
1060	 C1'	-11.190	23.832	-37.534	C.3	50	A50	0.000	
1061	  N1	-10.746	27.870	-40.820	N.2	50	A50	0.000	
1062	  C2	-10.492	26.559	-40.985	C.2	50	A50	0.000	
1063	  N3	-10.631	25.559	-40.103	N.2	50	A50	0.000	
1064	  C4	-11.084	26.004	-38.912	C.2	50	A50	0.000	
1065	  C5	-11.386	27.326	-38.593	C.2	50	A50	0.000	
1066	  C6	-11.202	28.292	-39.614	C.2	50	A50	0.000	
1067	  N6	-11.455	29.593	-39.440	N.pl3	50	A50	0.000	
1068	  N7	-11.827	27.432	-37.282	N.2	50	A50	0.000	
1069	  C8	-11.782	26.191	-36.845	C.2	50	A50	0.000	
1070	  N9	-11.358	25.270	-37.771	N.pl3	50	A50	0.000	
1071	 OP1	-11.588	22.758	-42.860	O.co2	50	A50	0.000	
1072	 OP2	-9.040	22.318	-42.865	O.co2	50	A50	0.000	
1073	   P	-10.499	19.473	-36.890	P.3	51	C51	0.000	
1074	 C5'	-12.986	19.023	-36.538	C.3	51	C51	0.000	
1075	 O5'	-11.674	18.598	-36.287	O.3	51	C51	0.000	
1076	 C4'	-13.852	17.804	-36.547	C.3	51	C51	0.000	
1077	 O4'	-13.668	17.036	-37.755	O.3	51	C51	0.000	
1078	 C3'	-13.527	16.822	-35.448	C.3	51	C51	0.000	
1079	 O3'	-14.100	17.293	-34.309	O.3	51	C51	0.000	
1080	 C2'	-14.245	15.611	-35.970	C.3	51	C51	0.000	
1081	 O2'	-15.652	15.752	-35.871	O.3	51	C51	0.000	
1082	 C1'	-13.719	15.668	-37.405	C.3	51	C51	0.000	
1083	  N1	-12.352	15.110	-37.595	N.pl3	51	C51	0.000	
1084	  C2	-12.111	13.740	-37.433	C.2	51	C51	0.000	
1085	  O2	-13.050	13.006	-37.123	O.2	51	C51	0.000	
1086	  N3	-10.857	13.248	-37.621	N.2	51	C51	0.000	
1087	  C4	-9.866	14.074	-37.967	C.2	51	C51	0.000	
1088	  N4	-8.641	13.584	-38.157	N.pl3	51	C51	0.000	
1089	  C5	-10.099	15.468	-38.142	C.2	51	C51	0.000	
1090	  C6	-11.337	15.945	-37.953	C.2	51	C51	0.000	
1091	 OP1	-9.444	19.644	-35.868	O.co2	51	C51	0.000	
1092	 OP2	-10.167	18.912	-38.217	O.co2	51	C51	0.000	
1093	   P	-13.226	17.485	-33.013	P.3	52	A52	0.000	
1094	 C5'	-14.554	15.479	-32.171	C.3	52	A52	0.000	
1095	 O5'	-13.290	16.016	-32.456	O.3	52	A52	0.000	
1096	 C4'	-14.340	14.109	-31.602	C.3	52	A52	0.000	
1097	 O4'	-14.389	13.113	-32.665	O.3	52	A52	0.000	
1098	 C3'	-12.951	13.880	-31.021	C.3	52	A52	0.000	
1099	 O3'	-12.665	14.681	-29.878	O.3	52	A52	0.000	
1100	 C2'	-13.089	12.362	-30.943	C.3	52	A52	0.000	
1101	 O2'	-14.187	11.896	-30.178	O.3	52	A52	0.000	
1102	 C1'	-13.342	12.182	-32.435	C.3	52	A52	0.000	
1103	  N1	-8.777	10.473	-34.003	N.2	52	A52	0.000	
1104	  C2	-9.740	9.937	-33.239	C.2	52	A52	0.000	
1105	  N3	-10.917	10.451	-32.874	N.2	52	A52	0.000	
1106	  C4	-11.059	11.673	-33.388	C.2	52	A52	0.000	
1107	  C5	-10.157	12.359	-34.186	C.2	52	A52	0.000	
1108	  C6	-8.956	11.703	-34.498	C.2	52	A52	0.000	
1109	  N6	-7.997	12.218	-35.253	N.pl3	52	A52	0.000	
1110	  N7	-10.646	13.599	-34.530	N.2	52	A52	0.000	
1111	  C8	-11.819	13.621	-33.939	C.2	52	A52	0.000	
1112	  N9	-12.142	12.484	-33.233	N.pl3	52	A52	0.000	
1113	 OP1	-14.049	18.281	-32.081	O.co2	52	A52	0.000	
1114	 OP2	-11.829	17.866	-33.342	O.co2	52	A52	0.000	
1115	   P	-12.913	14.288	-28.358	P.3	53	G53	0.000	
1116	 C5'	-12.770	11.931	-27.202	C.3	53	G53	0.000	
1117	 O5'	-12.244	12.841	-28.147	O.3	53	G53	0.000	
1118	 C4'	-11.920	10.686	-27.144	C.3	53	G53	0.000	
1119	 O4'	-11.669	10.142	-28.463	O.3	53	G53	0.000	
1120	 C3'	-10.541	10.965	-26.615	C.3	53	G53	0.000	
1121	 O3'	-10.565	11.055	-25.209	O.3	53	G53	0.000	
1122	 C2'	-9.736	9.784	-27.134	C.3	53	G53	0.000	
1123	 O2'	-9.876	8.621	-26.357	O.3	53	G53	0.000	
1124	 C1'	-10.342	9.651	-28.528	C.3	53	G53	0.000	
1125	  N1	-6.138	9.948	-31.387	N.pl3	53	G53	0.000	
1126	  C2	-6.533	8.983	-30.505	C.2	53	G53	0.000	
1127	  N2	-5.677	7.966	-30.351	N.pl3	53	G53	0.000	
1128	  N3	-7.657	9.026	-29.814	N.2	53	G53	0.000	
1129	  C4	-8.390	10.121	-30.088	C.2	53	G53	0.000	
1130	  C5	-8.103	11.137	-30.961	C.2	53	G53	0.000	
1131	  C6	-6.891	11.074	-31.698	C.2	53	G53	0.000	
1132	  O6	-6.430	11.867	-32.537	O.2	53	G53	0.000	
1133	  N7	-9.125	12.079	-30.970	N.2	53	G53	0.000	
1134	  C8	-9.983	11.637	-30.095	C.2	53	G53	0.000	
1135	  N9	-9.609	10.434	-29.531	N.pl3	53	G53	0.000	
1136	 OP1	-14.389	14.187	-28.244	O.co2	53	G53	0.000	
1137	 OP2	-12.119	15.234	-27.535	O.co2	53	G53	0.000	
1138	   P	-9.501	12.076	-24.599	P.3	54	G54	0.000	
1139	 C5'	-7.809	10.120	-24.210	C.3	54	G54	0.000	
1140	 O5'	-8.139	11.288	-24.908	O.3	54	G54	0.000	
1141	 C4'	-6.502	9.576	-24.728	C.3	54	G54	0.000	
1142	 O4'	-6.579	9.355	-26.147	O.3	54	G54	0.000	
1143	 C3'	-5.309	10.495	-24.625	C.3	54	G54	0.000	
1144	 O3'	-4.985	10.603	-23.264	O.3	54	G54	0.000	
1145	 C2'	-4.353	9.731	-25.553	C.3	54	G54	0.000	
1146	 O2'	-3.872	8.469	-25.125	O.3	54	G54	0.000	
1147	 C1'	-5.292	9.512	-26.718	C.3	54	G54	0.000	
1148	  N1	-2.746	11.801	-30.447	N.pl3	54	G54	0.000	
1149	  C2	-2.423	10.669	-29.737	C.2	54	G54	0.000	
1150	  N2	-1.274	10.087	-30.091	N.pl3	54	G54	0.000	
1151	  N3	-3.177	10.159	-28.768	N.2	54	G54	0.000	
1152	  C4	-4.302	10.898	-28.571	C.2	54	G54	0.000	
1153	  C5	-4.717	12.047	-29.223	C.2	54	G54	0.000	
1154	  C6	-3.898	12.570	-30.246	C.2	54	G54	0.000	
1155	  O6	-4.098	13.569	-30.939	O.2	54	G54	0.000	
1156	  N7	-5.930	12.511	-28.739	N.2	54	G54	0.000	
1157	  C8	-6.219	11.641	-27.809	C.2	54	G54	0.000	
1158	  N9	-5.282	10.632	-27.654	N.pl3	54	G54	0.000	
1159	 OP1	-9.732	12.185	-23.134	O.co2	54	G54	0.000	
1160	 OP2	-9.491	13.296	-25.454	O.co2	54	G54	0.000	
1161	   P	-3.651	11.252	-22.686	P.3	55	G55	0.000	
1162	 C5'	-1.331	10.448	-23.418	C.3	55	G55	0.000	
1163	 O5'	-2.584	10.899	-23.787	O.3	55	G55	0.000	
1164	 C4'	-0.435	10.610	-24.615	C.3	55	G55	0.000	
1165	 O4'	-1.192	10.794	-25.844	O.3	55	G55	0.000	
1166	 C3'	0.409	11.854	-24.578	C.3	55	G55	0.000	
1167	 O3'	1.451	11.644	-23.673	O.3	55	G55	0.000	
1168	 C2'	0.856	11.903	-26.027	C.3	55	G55	0.000	
1169	 O2'	1.834	10.920	-26.285	O.3	55	G55	0.000	
1170	 C1'	-0.445	11.581	-26.749	C.3	55	G55	0.000	
1171	  N1	-1.002	15.679	-29.745	N.pl3	55	G55	0.000	
1172	  C2	0.029	14.752	-29.737	C.2	55	G55	0.000	
1173	  N2	1.029	14.912	-30.618	N.pl3	55	G55	0.000	
1174	  N3	0.076	13.718	-28.910	N.2	55	G55	0.000	
1175	  C4	-1.001	13.681	-28.081	C.2	55	G55	0.000	
1176	  C5	-2.063	14.559	-28.026	C.2	55	G55	0.000	
1177	  C6	-2.108	15.646	-28.897	C.2	55	G55	0.000	
1178	  O6	-2.994	16.492	-28.939	O.2	55	G55	0.000	
1179	  N7	-2.969	14.198	-27.048	N.2	55	G55	0.000	
1180	  C8	-2.454	13.115	-26.527	C.2	55	G55	0.000	
1181	  N9	-1.258	12.737	-27.103	N.pl3	55	G55	0.000	
1182	 OP1	-3.352	10.515	-21.440	O.co2	55	G55	0.000	
1183	 OP2	-3.746	12.725	-22.621	O.co2	55	G55	0.000	
1184	   P	2.128	12.926	-23.025	P.3	56	U56	0.000	
1185	 C5'	4.115	13.140	-24.713	C.3	56	U56	0.000	
1186	 O5'	2.826	13.568	-24.313	O.3	56	U56	0.000	
1187	 C4'	4.591	13.930	-25.906	C.3	56	U56	0.000	
1188	 O4'	3.520	14.110	-26.844	O.3	56	U56	0.000	
1189	 C3'	5.007	15.346	-25.594	C.3	56	U56	0.000	
1190	 O3'	6.276	15.375	-24.986	O.3	56	U56	0.000	
1191	 C2'	4.993	15.937	-26.982	C.3	56	U56	0.000	
1192	 O2'	6.088	15.491	-27.752	O.3	56	U56	0.000	
1193	 C1'	3.692	15.346	-27.497	C.3	56	U56	0.000	
1194	  N1	2.444	16.146	-27.264	N.pl3	56	U56	0.000	
1195	  C2	2.029	17.033	-28.233	C.2	56	U56	0.000	
1196	  O2	2.640	17.218	-29.258	O.2	56	U56	0.000	
1197	  N3	0.862	17.708	-27.989	N.pl3	56	U56	0.000	
1198	  C4	0.087	17.603	-26.858	C.2	56	U56	0.000	
1199	  O4	-0.923	18.281	-26.775	O.2	56	U56	0.000	
1200	  C5	0.554	16.665	-25.869	C.2	56	U56	0.000	
1201	  C6	1.693	15.981	-26.106	C.2	56	U56	0.000	
1202	 OP1	3.171	12.399	-22.110	O.co2	56	U56	0.000	
1203	 OP2	1.075	13.860	-22.552	O.co2	56	U56	0.000	
1204	   P	6.409	16.402	-23.786	P.3	57	A57	0.000	
1205	 C5'	6.452	19.054	-24.086	C.3	57	A57	0.000	
1206	 O5'	6.642	17.738	-24.651	O.3	57	A57	0.000	
1207	 C4'	6.809	20.154	-25.069	C.3	57	A57	0.000	
1208	 O4'	8.166	19.950	-25.512	O.3	57	A57	0.000	
1209	 C3'	5.947	20.191	-26.326	C.3	57	A57	0.000	
1210	 O3'	4.843	21.082	-26.209	O.3	57	A57	0.000	
1211	 C2'	6.896	20.502	-27.481	C.3	57	A57	0.000	
1212	 O2'	6.820	21.778	-28.091	O.3	57	A57	0.000	
1213	 C1'	8.278	20.263	-26.881	C.3	57	A57	0.000	
1214	  N1	9.894	18.609	-31.438	N.2	57	A57	0.000	
1215	  C2	9.330	19.751	-31.062	C.2	57	A57	0.000	
1216	  N3	8.926	20.112	-29.847	N.2	57	A57	0.000	
1217	  C4	9.165	19.141	-28.949	C.2	57	A57	0.000	
1218	  C5	9.736	17.917	-29.190	C.2	57	A57	0.000	
1219	  C6	10.120	17.656	-30.512	C.2	57	A57	0.000	
1220	  N6	10.687	16.499	-30.875	N.pl3	57	A57	0.000	
1221	  N7	9.822	17.171	-28.029	N.2	57	A57	0.000	
1222	  C8	9.309	17.956	-27.110	C.2	57	A57	0.000	
1223	  N9	8.901	19.161	-27.597	N.pl3	57	A57	0.000	
1224	 OP1	7.601	16.161	-22.929	O.co2	57	A57	0.000	
1225	 OP2	5.056	16.492	-23.187	O.co2	57	A57	0.000	
1226	   P	3.416	20.370	-26.270	P.3	58	A58	0.000	
1227	 C5'	2.950	21.517	-28.509	C.3	58	A58	0.000	
1228	 O5'	3.208	20.309	-27.844	O.3	58	A58	0.000	
1229	 C4'	3.691	21.640	-29.817	C.3	58	A58	0.000	
1230	 O4'	5.041	21.133	-29.796	O.3	58	A58	0.000	
1231	 C3'	3.042	20.843	-30.910	C.3	58	A58	0.000	
1232	 O3'	1.921	21.543	-31.366	O.3	58	A58	0.000	
1233	 C2'	4.123	20.793	-31.951	C.3	58	A58	0.000	
1234	 O2'	4.158	22.019	-32.651	O.3	58	A58	0.000	
1235	 C1'	5.355	20.588	-31.079	C.3	58	A58	0.000	
1236	  N1	7.947	16.479	-33.040	N.2	58	A58	0.000	
1237	  C2	7.639	17.678	-33.575	C.2	58	A58	0.000	
1238	  N3	6.969	18.704	-33.025	N.2	58	A58	0.000	
1239	  C4	6.565	18.413	-31.781	C.2	58	A58	0.000	
1240	  C5	6.813	17.226	-31.109	C.2	58	A58	0.000	
1241	  C6	7.535	16.222	-31.780	C.2	58	A58	0.000	
1242	  N6	7.802	15.040	-31.227	N.pl3	58	A58	0.000	
1243	  N7	6.262	17.244	-29.854	N.2	58	A58	0.000	
1244	  C8	5.701	18.423	-29.788	C.2	58	A58	0.000	
1245	  N9	5.839	19.201	-30.912	N.pl3	58	A58	0.000	
1246	 OP1	2.335	21.219	-25.747	O.co2	58	A58	0.000	
1247	 OP2	3.599	19.035	-25.674	O.co2	58	A58	0.000	
1248	   P	0.582	20.708	-31.388	P.3	59	U59	0.000	
1249	 C5'	0.384	20.404	-33.972	C.3	59	U59	0.000	
1250	 O5'	0.817	19.888	-32.743	O.3	59	U59	0.000	
1251	 C4'	1.139	19.795	-35.143	C.3	59	U59	0.000	
1252	 O4'	2.522	19.503	-34.827	O.3	59	U59	0.000	
1253	 C3'	0.595	18.456	-35.577	C.3	59	U59	0.000	
1254	 O3'	-0.581	18.600	-36.350	O.3	59	U59	0.000	
1255	 C2'	1.752	17.868	-36.358	C.3	59	U59	0.000	
1256	 O2'	1.780	18.306	-37.696	O.3	59	U59	0.000	
1257	 C1'	2.945	18.367	-35.564	C.3	59	U59	0.000	
1258	  N1	3.530	17.354	-34.630	N.pl3	59	U59	0.000	
1259	  C2	4.525	16.524	-35.081	C.2	59	U59	0.000	
1260	  O2	4.939	16.544	-36.221	O.2	59	U59	0.000	
1261	  N3	5.032	15.645	-34.161	N.pl3	59	U59	0.000	
1262	  C4	4.637	15.498	-32.844	C.2	59	U59	0.000	
1263	  O4	5.171	14.651	-32.123	O.2	59	U59	0.000	
1264	  C5	3.607	16.411	-32.438	C.2	59	U59	0.000	
1265	  C6	3.104	17.276	-33.326	C.2	59	U59	0.000	
1266	 OP1	-0.594	21.586	-31.570	O.co2	59	U59	0.000	
1267	 OP2	0.664	19.842	-30.186	O.co2	59	U59	0.000	
1268	   P	-1.760	17.702	-35.818	P.3	60	G60	0.000	
1269	 C5'	-2.160	15.270	-36.888	C.3	60	G60	0.000	
1270	 O5'	-1.287	16.368	-36.551	O.3	60	G60	0.000	
1271	 C4'	-1.591	14.430	-38.032	C.3	60	G60	0.000	
1272	 O4'	-2.435	14.594	-39.213	O.3	60	G60	0.000	
1273	 C3'	-0.158	14.775	-38.486	C.3	60	G60	0.000	
1274	 O3'	0.839	14.000	-37.830	O.3	60	G60	0.000	
1275	 C2'	-0.287	14.437	-39.949	C.3	60	G60	0.000	
1276	 O2'	-0.367	13.045	-40.129	O.3	60	G60	0.000	
1277	 C1'	-1.619	15.076	-40.279	C.3	60	G60	0.000	
1278	  N1	-0.063	19.235	-42.934	N.pl3	60	G60	0.000	
1279	  C2	-0.011	17.907	-43.316	C.2	60	G60	0.000	
1280	  N2	0.507	17.680	-44.529	N.pl3	60	G60	0.000	
1281	  N3	-0.440	16.884	-42.571	N.2	60	G60	0.000	
1282	  C4	-0.939	17.317	-41.374	C.2	60	G60	0.000	
1283	  C5	-1.024	18.630	-40.911	C.2	60	G60	0.000	
1284	  C6	-0.570	19.692	-41.709	C.2	60	G60	0.000	
1285	  O6	-0.604	20.891	-41.394	O.2	60	G60	0.000	
1286	  N7	-1.584	18.710	-39.643	N.2	60	G60	0.000	
1287	  C8	-1.843	17.458	-39.354	C.2	60	G60	0.000	
1288	  N9	-1.483	16.547	-40.344	N.pl3	60	G60	0.000	
1289	 OP1	-3.104	18.048	-36.324	O.co2	60	G60	0.000	
1290	 OP2	-1.516	17.606	-34.364	O.co2	60	G60	0.000	
1291	   P	2.276	13.635	-38.427	P.3	61	C61	0.000	
1292	 C5'	3.989	12.393	-36.818	C.3	61	C61	0.000	
1293	 O5'	3.001	13.411	-37.018	O.3	61	C61	0.000	
1294	 C4'	3.859	11.566	-35.538	C.3	61	C61	0.000	
1295	 O4'	3.711	12.375	-34.334	O.3	61	C61	0.000	
1296	 C3'	2.696	10.600	-35.478	C.3	61	C61	0.000	
1297	 O3'	3.021	9.444	-36.224	O.3	61	C61	0.000	
1298	 C2'	2.640	10.358	-33.976	C.3	61	C61	0.000	
1299	 O2'	3.717	9.593	-33.492	O.3	61	C61	0.000	
1300	 C1'	2.795	11.767	-33.439	C.3	61	C61	0.000	
1301	  N1	1.498	12.539	-33.376	N.pl3	61	C61	0.000	
1302	  C2	0.568	12.306	-32.345	C.2	61	C61	0.000	
1303	  O2	0.807	11.462	-31.469	O.2	61	C61	0.000	
1304	  N3	-0.584	13.028	-32.339	N.2	61	C61	0.000	
1305	  C4	-0.829	13.934	-33.291	C.2	61	C61	0.000	
1306	  N4	-1.968	14.620	-33.265	N.pl3	61	C61	0.000	
1307	  C5	0.092	14.178	-34.338	C.2	61	C61	0.000	
1308	  C6	1.225	13.472	-34.344	C.2	61	C61	0.000	
1309	 OP1	2.861	14.787	-39.134	O.co2	61	C61	0.000	
1310	 OP2	2.223	12.349	-39.158	O.co2	61	C61	0.000	
1311	   P	1.905	8.424	-36.763	P.3	62	C62	0.000	
1312	 C5'	1.975	6.722	-34.766	C.3	62	C62	0.000	
1313	 O5'	1.331	7.793	-35.418	O.3	62	C62	0.000	
1314	 C4'	1.042	6.165	-33.705	C.3	62	C62	0.000	
1315	 O4'	0.690	7.180	-32.733	O.3	62	C62	0.000	
1316	 C3'	-0.306	5.700	-34.206	C.3	62	C62	0.000	
1317	 O3'	-0.137	4.444	-34.814	O.3	62	C62	0.000	
1318	 C2'	-1.103	5.675	-32.905	C.3	62	C62	0.000	
1319	 O2'	-0.864	4.558	-32.095	O.3	62	C62	0.000	
1320	 C1'	-0.604	6.948	-32.231	C.3	62	C62	0.000	
1321	  N1	-1.494	8.078	-32.584	N.pl3	62	C62	0.000	
1322	  C2	-2.796	8.053	-32.040	C.2	62	C62	0.000	
1323	  O2	-3.132	7.125	-31.276	O.2	62	C62	0.000	
1324	  N3	-3.651	9.054	-32.373	N.2	62	C62	0.000	
1325	  C4	-3.250	10.028	-33.191	C.2	62	C62	0.000	
1326	  N4	-4.154	10.973	-33.462	N.pl3	62	C62	0.000	
1327	  C5	-1.936	10.070	-33.760	C.2	62	C62	0.000	
1328	  C6	-1.097	9.084	-33.440	C.2	62	C62	0.000	
1329	 OP1	2.615	7.417	-37.580	O.co2	62	C62	0.000	
1330	 OP2	0.782	9.165	-37.367	O.co2	62	C62	0.000	
1331	   P	-1.185	3.797	-35.813	P.3	63	U63	0.000	
1332	 C5'	-3.136	2.777	-34.363	C.3	63	U63	0.000	
1333	 O5'	-2.579	3.888	-35.047	O.3	63	U63	0.000	
1334	 C4'	-4.457	3.163	-33.721	C.3	63	U63	0.000	
1335	 O4'	-4.335	4.435	-33.044	O.3	63	U63	0.000	
1336	 C3'	-5.619	3.400	-34.664	C.3	63	U63	0.000	
1337	 O3'	-6.137	2.181	-35.021	O.3	63	U63	0.000	
1338	 C2'	-6.586	4.162	-33.776	C.3	63	U63	0.000	
1339	 O2'	-7.328	3.352	-32.879	O.3	63	U63	0.000	
1340	 C1'	-5.601	5.081	-33.066	C.3	63	U63	0.000	
1341	  N1	-5.519	6.366	-33.780	N.pl3	63	U63	0.000	
1342	  C2	-6.541	7.266	-33.608	C.2	63	U63	0.000	
1343	  O2	-7.494	7.078	-32.895	O.2	63	U63	0.000	
1344	  N3	-6.415	8.434	-34.297	N.pl3	63	U63	0.000	
1345	  C4	-5.377	8.777	-35.152	C.2	63	U63	0.000	
1346	  O4	-5.401	9.875	-35.713	O.2	63	U63	0.000	
1347	  C5	-4.338	7.773	-35.287	C.2	63	U63	0.000	
1348	  C6	-4.453	6.619	-34.616	C.2	63	U63	0.000	
1349	 OP1	-0.764	2.391	-35.903	O.co2	63	U63	0.000	
1350	 OP2	-1.342	4.645	-37.010	O.co2	63	U63	0.000	
1351	   P	-6.625	1.852	-36.497	P.3	64	G64	0.000	
1352	 C5'	-8.661	3.222	-36.219	C.3	64	G64	0.000	
1353	 O5'	-8.191	1.944	-36.301	O.3	64	G64	0.000	
1354	 C4'	-9.891	3.328	-35.359	C.3	64	G64	0.000	
1355	 O4'	-9.706	4.376	-34.373	O.3	64	G64	0.000	
1356	 C3'	-11.081	3.726	-36.208	C.3	64	G64	0.000	
1357	 O3'	-11.934	2.607	-36.337	O.3	64	G64	0.000	
1358	 C2'	-11.663	4.962	-35.513	C.3	64	G64	0.000	
1359	 O2'	-12.729	4.705	-34.623	O.3	64	G64	0.000	
1360	 C1'	-10.432	5.528	-34.792	C.3	64	G64	0.000	
1361	  N1	-10.148	10.045	-37.173	N.pl3	64	G64	0.000	
1362	  C2	-11.127	9.560	-36.348	C.2	64	G64	0.000	
1363	  N2	-12.159	10.366	-36.131	N.pl3	64	G64	0.000	
1364	  N3	-11.097	8.369	-35.777	N.2	64	G64	0.000	
1365	  C4	-9.979	7.679	-36.095	C.2	64	G64	0.000	
1366	  C5	-8.952	8.085	-36.902	C.2	64	G64	0.000	
1367	  C6	-8.989	9.343	-37.505	C.2	64	G64	0.000	
1368	  O6	-8.119	9.820	-38.248	O.2	64	G64	0.000	
1369	  N7	-7.977	7.132	-37.011	N.2	64	G64	0.000	
1370	  C8	-8.415	6.174	-36.259	C.2	64	G64	0.000	
1371	  N9	-9.638	6.415	-35.670	N.pl3	64	G64	0.000	
1372	 OP1	-6.246	0.431	-36.720	O.co2	64	G64	0.000	
1373	 OP2	-6.256	2.892	-37.481	O.co2	64	G64	0.000	
1374	   P	-12.572	2.321	-37.774	P.3	65	C65	0.000	
1375	 C5'	-14.231	4.260	-37.729	C.3	65	C65	0.000	
1376	 O5'	-13.005	3.785	-38.213	O.3	65	C65	0.000	
1377	 C4'	-14.518	5.644	-38.255	C.3	65	C65	0.000	
1378	 O4'	-13.492	6.561	-37.806	O.3	65	C65	0.000	
1379	 C3'	-14.555	5.789	-39.768	C.3	65	C65	0.000	
1380	 O3'	-15.780	5.225	-40.233	O.3	65	C65	0.000	
1381	 C2'	-14.410	7.308	-39.815	C.3	65	C65	0.000	
1382	 O2'	-15.607	7.965	-39.453	O.3	65	C65	0.000	
1383	 C1'	-13.325	7.581	-38.765	C.3	65	C65	0.000	
1384	  N1	-11.891	7.532	-39.238	N.pl3	65	C65	0.000	
1385	  C2	-11.390	8.568	-40.016	C.2	65	C65	0.000	
1386	  O2	-12.149	9.489	-40.295	O.2	65	C65	0.000	
1387	  N3	-10.101	8.540	-40.445	N.2	65	C65	0.000	
1388	  C4	-9.303	7.527	-40.120	C.2	65	C65	0.000	
1389	  N4	-8.040	7.533	-40.559	N.pl3	65	C65	0.000	
1390	  C5	-9.788	6.456	-39.323	C.2	65	C65	0.000	
1391	  C6	-11.062	6.493	-38.910	C.2	65	C65	0.000	
1392	 OP1	-13.812	1.552	-37.520	O.co2	65	C65	0.000	
1393	 OP2	-11.558	1.853	-38.746	O.co2	65	C65	0.000	
1394	   P	-16.362	5.402	-41.710	P.3	66	G66	0.000	
1395	 C5'	-15.253	3.095	-42.257	C.3	66	G66	0.000	
1396	 O5'	-15.415	4.471	-42.589	O.3	66	G66	0.000	
1397	 C4'	-14.138	2.423	-43.043	C.3	66	G66	0.000	
1398	 O4'	-13.357	3.415	-43.759	O.3	66	G66	0.000	
1399	 C3'	-13.155	1.661	-42.168	C.3	66	G66	0.000	
1400	 O3'	-12.630	0.504	-42.829	O.3	66	G66	0.000	
1401	 C2'	-12.090	2.714	-41.921	C.3	66	G66	0.000	
1402	 O2'	-10.869	2.097	-41.557	O.3	66	G66	0.000	
1403	 C1'	-12.042	3.441	-43.274	C.3	66	G66	0.000	
1404	  N1	-8.124	6.695	-43.527	N.pl3	66	G66	0.000	
1405	  C2	-8.161	5.333	-43.603	C.2	66	G66	0.000	
1406	  N2	-6.988	4.725	-43.787	N.pl3	66	G66	0.000	
1407	  N3	-9.254	4.599	-43.538	N.2	66	G66	0.000	
1408	  C4	-10.356	5.348	-43.356	C.2	66	G66	0.000	
1409	  C5	-10.434	6.722	-43.254	C.2	66	G66	0.000	
1410	  C6	-9.241	7.502	-43.342	C.2	66	G66	0.000	
1411	  O6	-9.053	8.740	-43.283	O.2	66	G66	0.000	
1412	  N7	-11.765	7.078	-43.077	N.2	66	G66	0.000	
1413	  C8	-12.436	5.950	-43.071	C.2	66	G66	0.000	
1414	  N9	-11.637	4.845	-43.239	N.pl3	66	G66	0.000	
1415	 OP1	-16.076	6.785	-42.131	O.co2	66	G66	0.000	
1416	 OP2	-17.750	4.893	-41.767	O.co2	66	G66	0.000	
1417	   P	-13.197	-0.982	-42.586	P.3	67	C67	0.000	
1418	 C5'	-14.169	-2.342	-44.642	C.3	67	C67	0.000	
1419	 O5'	-13.106	-1.593	-44.063	O.3	67	C67	0.000	
1420	 C4'	-14.758	-1.668	-45.875	C.3	67	C67	0.000	
1421	 O4'	-14.216	-2.300	-47.066	O.3	67	C67	0.000	
1422	 C3'	-16.280	-1.769	-45.978	C.3	67	C67	0.000	
1423	 O3'	-16.881	-0.564	-46.472	O.3	67	C67	0.000	
1424	 C2'	-16.515	-2.960	-46.912	C.3	67	C67	0.000	
1425	 O2'	-17.615	-2.797	-47.793	O.3	67	C67	0.000	
1426	 C1'	-15.196	-3.119	-47.686	C.3	67	C67	0.000	
1427	  N1	-14.760	-4.581	-47.729	N.pl3	67	C67	0.000	
1428	  C2	-14.745	-5.322	-48.944	C.2	67	C67	0.000	
1429	  O2	-15.062	-4.788	-50.019	O.2	67	C67	0.000	
1430	  N3	-14.363	-6.634	-48.918	N.2	67	C67	0.000	
1431	  C4	-14.018	-7.217	-47.758	C.2	67	C67	0.000	
1432	  N4	-13.640	-8.502	-47.785	N.pl3	67	C67	0.000	
1433	  C5	-14.033	-6.494	-46.518	C.2	67	C67	0.000	
1434	  C6	-14.416	-5.204	-46.546	C.2	67	C67	0.000	
1435	 OP1	-14.625	-0.880	-42.218	O.co2	67	C67	0.000	
1436	 OP2	-12.273	-1.691	-41.673	O.co2	67	C67	0.000	
1437	   P	-18.158	0.131	-45.770	P.3	68	A68	0.000	
1438	 C5'	-16.766	2.146	-46.572	C.3	68	A68	0.000	
1439	 O5'	-17.651	1.628	-45.632	O.3	68	A68	0.000	
1440	 C4'	-17.384	3.412	-47.057	C.3	68	A68	0.000	
1441	 O4'	-17.212	4.446	-46.062	O.3	68	A68	0.000	
1442	 C3'	-16.732	3.943	-48.305	C.3	68	A68	0.000	
1443	 O3'	-17.189	3.135	-49.386	O.3	68	A68	0.000	
1444	 C2'	-17.212	5.394	-48.192	C.3	68	A68	0.000	
1445	 O2'	-18.583	5.618	-48.436	O.3	68	A68	0.000	
1446	 C1'	-16.917	5.657	-46.721	C.3	68	A68	0.000	
1447	  N1	-13.381	9.322	-47.110	N.2	68	A68	0.000	
1448	  C2	-14.685	9.293	-47.415	C.2	68	A68	0.000	
1449	  N3	-15.558	8.300	-47.286	N.2	68	A68	0.000	
1450	  C4	-14.951	7.221	-46.772	C.2	68	A68	0.000	
1451	  C5	-13.623	7.098	-46.408	C.2	68	A68	0.000	
1452	  C6	-12.804	8.223	-46.596	C.2	68	A68	0.000	
1453	  N6	-11.508	8.248	-46.283	N.pl3	68	A68	0.000	
1454	  N7	-13.367	5.839	-45.912	N.2	68	A68	0.000	
1455	  C8	-14.527	5.232	-45.986	C.2	68	A68	0.000	
1456	  N9	-15.525	6.013	-46.492	N.pl3	68	A68	0.000	
1457	 OP1	-18.260	-0.388	-44.381	O.co2	68	A68	0.000	
1458	 OP2	-19.338	0.122	-46.682	O.co2	68	A68	0.000	
1459	   P	-16.793	3.372	-50.923	P.3	69	G69	0.000	
1460	 C5'	-17.022	5.526	-52.319	C.3	69	G69	0.000	
1461	 O5'	-17.349	4.854	-51.141	O.3	69	G69	0.000	
1462	 C4'	-17.289	7.015	-52.236	C.3	69	G69	0.000	
1463	 O4'	-17.081	7.591	-50.920	O.3	69	G69	0.000	
1464	 C3'	-16.331	7.773	-53.122	C.3	69	G69	0.000	
1465	 O3'	-16.898	7.747	-54.401	O.3	69	G69	0.000	
1466	 C2'	-16.253	9.127	-52.438	C.3	69	G69	0.000	
1467	 O2'	-17.426	9.877	-52.620	O.3	69	G69	0.000	
1468	 C1'	-16.121	8.640	-50.997	C.3	69	G69	0.000	
1469	  N1	-11.043	9.308	-50.633	N.pl3	69	G69	0.000	
1470	  C2	-11.993	10.187	-51.098	C.2	69	G69	0.000	
1471	  N2	-11.521	11.366	-51.509	N.pl3	69	G69	0.000	
1472	  N3	-13.294	9.926	-51.158	N.2	69	G69	0.000	
1473	  C4	-13.570	8.683	-50.691	C.2	69	G69	0.000	
1474	  C5	-12.684	7.745	-50.205	C.2	69	G69	0.000	
1475	  C6	-11.313	8.037	-50.152	C.2	69	G69	0.000	
1476	  O6	-10.392	7.325	-49.760	O.2	69	G69	0.000	
1477	  N7	-13.327	6.598	-49.818	N.2	69	G69	0.000	
1478	  C8	-14.575	6.842	-50.087	C.2	69	G69	0.000	
1479	  N9	-14.809	8.091	-50.609	N.pl3	69	G69	0.000	
1480	 OP1	-17.616	2.462	-51.761	O.co2	69	G69	0.000	
1481	 OP2	-15.311	3.315	-51.044	O.co2	69	G69	0.000	
1482	   P	-16.043	7.014	-55.535	P.3	70	G70	0.000	
1483	 C5'	-15.188	9.459	-56.207	C.3	70	G70	0.000	
1484	 O5'	-14.919	8.130	-55.745	O.3	70	G70	0.000	
1485	 C4'	-13.876	10.214	-56.117	C.3	70	G70	0.000	
1486	 O4'	-13.388	10.183	-54.751	O.3	70	G70	0.000	
1487	 C3'	-12.744	9.567	-56.907	C.3	70	G70	0.000	
1488	 O3'	-12.795	9.796	-58.329	O.3	70	G70	0.000	
1489	 C2'	-11.531	10.182	-56.236	C.3	70	G70	0.000	
1490	 O2'	-11.200	11.456	-56.707	O.3	70	G70	0.000	
1491	 C1'	-11.974	10.230	-54.784	C.3	70	G70	0.000	
1492	  N1	-7.769	8.252	-52.691	N.pl3	70	G70	0.000	
1493	  C2	-7.950	9.448	-53.340	C.2	70	G70	0.000	
1494	  N2	-6.876	10.240	-53.447	N.pl3	70	G70	0.000	
1495	  N3	-9.098	9.857	-53.854	N.2	70	G70	0.000	
1496	  C4	-10.082	8.963	-53.664	C.2	70	G70	0.000	
1497	  C5	-9.999	7.750	-53.044	C.2	70	G70	0.000	
1498	  C6	-8.785	7.331	-52.492	C.2	70	G70	0.000	
1499	  O6	-8.563	6.264	-51.920	O.2	70	G70	0.000	
1500	  N7	-11.211	7.113	-53.046	N.2	70	G70	0.000	
1501	  C8	-12.012	7.943	-53.663	C.2	70	G70	0.000	
1502	  N9	-11.394	9.103	-54.058	N.pl3	70	G70	0.000	
1503	 OP1	-16.870	6.917	-56.767	O.co2	70	G70	0.000	
1504	 OP2	-15.331	5.842	-54.975	O.co2	70	G70	0.000	
1505	   P	-11.755	9.008	-59.262	P.3	71	G71	0.000	
1506	 C5'	-9.235	9.453	-59.560	C.3	71	G71	0.000	
1507	 O5'	-10.380	9.671	-58.789	O.3	71	G71	0.000	
1508	 C4'	-7.965	9.777	-58.792	C.3	71	G71	0.000	
1509	 O4'	-8.176	9.745	-57.361	O.3	71	G71	0.000	
1510	 C3'	-6.830	8.805	-59.046	C.3	71	G71	0.000	
1511	 O3'	-6.027	9.305	-60.105	O.3	71	G71	0.000	
1512	 C2'	-6.098	8.719	-57.716	C.3	71	G71	0.000	
1513	 O2'	-5.088	9.691	-57.668	O.3	71	G71	0.000	
1514	 C1'	-7.202	8.963	-56.695	C.3	71	G71	0.000	
1515	  N1	-7.239	4.685	-53.779	N.pl3	71	G71	0.000	
1516	  C2	-6.203	5.571	-53.949	C.2	71	G71	0.000	
1517	  N2	-5.075	5.311	-53.282	N.pl3	71	G71	0.000	
1518	  N3	-6.281	6.650	-54.720	N.2	71	G71	0.000	
1519	  C4	-7.488	6.772	-55.327	C.2	71	G71	0.000	
1520	  C5	-8.568	5.928	-55.202	C.2	71	G71	0.000	
1521	  C6	-8.490	4.789	-54.388	C.2	71	G71	0.000	
1522	  O6	-9.382	3.952	-54.185	O.2	71	G71	0.000	
1523	  N7	-9.636	6.366	-55.940	N.2	71	G71	0.000	
1524	  C8	-9.200	7.443	-56.512	C.2	71	G71	0.000	
1525	  N9	-7.906	7.778	-56.183	N.pl3	71	G71	0.000	
1526	 OP1	-12.004	9.306	-60.699	O.co2	71	G71	0.000	
1527	 OP2	-11.723	7.607	-58.794	O.co2	71	G71	0.000	
1528	   P	-6.604	9.154	-61.581	P.3	72	A72	0.000	
1529	 C5'	-4.647	8.954	-63.333	C.3	72	A72	0.000	
1530	 O5'	-5.419	8.368	-62.311	O.3	72	A72	0.000	
1531	 C4'	-3.249	8.386	-63.346	C.3	72	A72	0.000	
1532	 O4'	-2.677	8.480	-62.028	O.3	72	A72	0.000	
1533	 C3'	-3.194	6.930	-63.722	C.3	72	A72	0.000	
1534	 O3'	-3.064	6.837	-65.126	O.3	72	A72	0.000	
1535	 C2'	-1.978	6.426	-62.952	C.3	72	A72	0.000	
1536	 O2'	-0.759	6.547	-63.651	O.3	72	A72	0.000	
1537	 C1'	-1.972	7.301	-61.704	C.3	72	A72	0.000	
1538	  N1	-1.462	4.915	-57.120	N.2	72	A72	0.000	
1539	  C2	-0.560	5.425	-57.970	C.2	72	A72	0.000	
1540	  N3	-0.749	6.037	-59.156	N.2	72	A72	0.000	
1541	  C4	-2.050	6.124	-59.450	C.2	72	A72	0.000	
1542	  C5	-3.092	5.642	-58.677	C.2	72	A72	0.000	
1543	  C6	-2.763	5.018	-57.460	C.2	72	A72	0.000	
1544	  N6	-3.694	4.521	-56.642	N.pl3	72	A72	0.000	
1545	  N7	-4.305	5.876	-59.282	N.2	72	A72	0.000	
1546	  C8	-3.972	6.488	-60.395	C.2	72	A72	0.000	
1547	  N9	-2.628	6.675	-60.563	N.pl3	72	A72	0.000	
1548	 OP1	-6.727	10.519	-62.116	O.co2	72	A72	0.000	
1549	 OP2	-7.823	8.316	-61.597	O.co2	72	A72	0.000	
1550	   P	-3.907	5.751	-65.934	P.3	73	G73	0.000	
1551	 C5'	-2.218	3.904	-65.107	C.3	73	G73	0.000	
1552	 O5'	-3.530	4.423	-65.120	O.3	73	G73	0.000	
1553	 C4'	-2.144	3.012	-66.317	C.3	73	G73	0.000	
1554	 O4'	-0.820	2.468	-66.479	O.3	73	G73	0.000	
1555	 C3'	-3.050	1.805	-66.255	C.3	73	G73	0.000	
1556	 O3'	-3.351	1.392	-67.583	O.3	73	G73	0.000	
1557	 C2'	-2.160	0.799	-65.556	C.3	73	G73	0.000	
1558	 O2'	-2.659	-0.482	-65.845	O.3	73	G73	0.000	
1559	 C1'	-0.817	1.084	-66.235	C.3	73	G73	0.000	
1560	  N1	4.176	1.124	-66.870	N.pl3	73	G73	0.000	
1561	  C2	3.156	1.290	-67.775	C.2	73	G73	0.000	
1562	  N2	3.517	1.507	-69.040	N.pl3	73	G73	0.000	
1563	  N3	1.870	1.259	-67.466	N.2	73	G73	0.000	
1564	  C4	1.669	1.024	-66.147	C.2	73	G73	0.000	
1565	  C5	2.602	0.824	-65.167	C.2	73	G73	0.000	
1566	  C6	3.971	0.861	-65.516	C.2	73	G73	0.000	
1567	  O6	4.938	0.714	-64.765	O.2	73	G73	0.000	
1568	  N7	1.989	0.613	-63.945	N.2	73	G73	0.000	
1569	  C8	0.713	0.691	-64.213	C.2	73	G73	0.000	
1570	  N9	0.451	0.921	-65.536	N.pl3	73	G73	0.000	
1571	 OP1	-3.375	5.706	-67.305	O.co2	73	G73	0.000	
1572	 OP2	-5.349	5.948	-65.700	O.co2	73	G73	0.000	
1573	   P	-4.769	0.759	-67.960	P.3	74	U74	0.000	
1574	 C5'	-3.350	-1.419	-68.659	C.3	74	U74	0.000	
1575	 O5'	-4.418	-0.487	-68.912	O.3	74	U74	0.000	
1576	 C4'	-3.682	-2.549	-67.667	C.3	74	U74	0.000	
1577	 O4'	-5.086	-2.490	-67.275	O.3	74	U74	0.000	
1578	 C3'	-3.470	-3.993	-68.152	C.3	74	U74	0.000	
1579	 O3'	-2.168	-4.508	-67.880	O.3	74	U74	0.000	
1580	 C2'	-4.474	-4.774	-67.312	C.3	74	U74	0.000	
1581	 O2'	-3.950	-5.099	-66.029	O.3	74	U74	0.000	
1582	 C1'	-5.649	-3.797	-67.212	C.3	74	U74	0.000	
1583	  N1	-6.770	-4.003	-68.249	N.pl3	74	U74	0.000	
1584	  C2	-6.755	-3.437	-69.534	C.2	74	U74	0.000	
1585	  O2	-5.868	-2.729	-69.992	O.2	74	U74	0.000	
1586	  N3	-7.854	-3.733	-70.314	N.pl3	74	U74	0.000	
1587	  C4	-8.946	-4.516	-69.961	C.2	74	U74	0.000	
1588	  O4	-9.858	-4.694	-70.769	O.2	74	U74	0.000	
1589	  C5	-8.898	-5.067	-68.626	C.2	74	U74	0.000	
1590	  C6	-7.840	-4.795	-67.844	C.2	74	U74	0.000	
1591	 OP1	-5.541	1.691	-68.830	O.co2	74	U74	0.000	
1592	 OP2	-5.306	0.295	-66.651	O.co2	74	U74	0.000	
1593	   P	-0.828	-3.891	-68.497	P.3	75	G75	0.000	
1594	 C5'	-0.781	-3.190	-71.079	C.3	75	G75	0.000	
1595	 O5'	-1.293	-3.011	-69.762	O.3	75	G75	0.000	
1596	 C4'	0.567	-2.513	-71.282	C.3	75	G75	0.000	
1597	 O4'	1.050	-1.771	-70.130	O.3	75	G75	0.000	
1598	 C3'	1.735	-3.457	-71.476	C.3	75	G75	0.000	
1599	 O3'	1.601	-4.253	-72.668	O.3	75	G75	0.000	
1600	 C2'	2.887	-2.447	-71.472	C.3	75	G75	0.000	
1601	 O2'	3.060	-1.712	-72.676	O.3	75	G75	0.000	
1602	 C1'	2.442	-1.554	-70.309	C.3	75	G75	0.000	
1603	  N1	6.987	-2.143	-68.120	N.pl3	75	G75	0.000	
1604	  C2	6.670	-1.892	-69.441	C.2	75	G75	0.000	
1605	  N2	7.703	-1.800	-70.294	N.pl3	75	G75	0.000	
1606	  N3	5.427	-1.763	-69.894	N.2	75	G75	0.000	
1607	  C4	4.505	-1.886	-68.902	C.2	75	G75	0.000	
1608	  C5	4.712	-2.113	-67.557	C.2	75	G75	0.000	
1609	  C6	6.040	-2.241	-67.092	C.2	75	G75	0.000	
1610	  O6	6.410	-2.453	-65.934	O.2	75	G75	0.000	
1611	  N7	3.516	-2.173	-66.862	N.2	75	G75	0.000	
1612	  C8	2.620	-1.980	-67.791	C.2	75	G75	0.000	
1613	  N9	3.148	-1.807	-69.056	N.pl3	75	G75	0.000	
1614	 OP1	-0.029	-5.029	-69.020	O.co2	75	G75	0.000	
1615	 OP2	-0.272	-3.007	-67.443	O.co2	75	G75	0.000	
1616	   P	1.747	-5.856	-72.584	P.3	76	U76	0.000	
1617	 C5'	3.914	-5.568	-74.070	C.3	76	U76	0.000	
1618	 O5'	3.317	-6.077	-72.862	O.3	76	U76	0.000	
1619	 C4'	5.426	-5.409	-73.980	C.3	76	U76	0.000	
1620	 O4'	5.790	-4.388	-73.025	O.3	76	U76	0.000	
1621	 C3'	6.199	-6.618	-73.490	C.3	76	U76	0.000	
1622	 O3'	6.354	-7.511	-74.571	O.3	76	U76	0.000	
1623	 C2'	7.497	-5.981	-73.006	C.3	76	U76	0.000	
1624	 O2'	8.349	-5.539	-74.040	O.3	76	U76	0.000	
1625	 C1'	6.910	-4.804	-72.259	C.3	76	U76	0.000	
1626	  N1	6.479	-5.067	-70.840	N.pl3	76	U76	0.000	
1627	  C2	7.443	-5.170	-69.870	C.2	76	U76	0.000	
1628	  O2	8.631	-5.098	-70.125	O.2	76	U76	0.000	
1629	  N3	6.983	-5.395	-68.597	N.pl3	76	U76	0.000	
1630	  C4	5.668	-5.488	-68.211	C.2	76	U76	0.000	
1631	  O4	5.407	-5.688	-67.040	O.2	76	U76	0.000	
1632	  C5	4.708	-5.364	-69.261	C.2	76	U76	0.000	
1633	  C6	5.144	-5.159	-70.505	C.2	76	U76	0.000	
1634	 OP1	0.984	-6.406	-73.735	O.co2	76	U76	0.000	
1635	 OP2	1.405	-6.311	-71.213	O.co2	76	U76	0.000	
1636	   P	6.086	-9.075	-74.379	P.3	77	C77	0.000	
1637	 C5'	8.737	-9.379	-74.458	C.3	77	C77	0.000	
1638	 O5'	7.496	-9.514	-73.746	O.3	77	C77	0.000	
1639	 C4'	9.913	-9.399	-73.497	C.3	77	C77	0.000	
1640	 O4'	9.812	-8.303	-72.546	O.3	77	C77	0.000	
1641	 C3'	10.009	-10.610	-72.582	C.3	77	C77	0.000	
1642	 O3'	10.539	-11.720	-73.262	O.3	77	C77	0.000	
1643	 C2'	10.902	-10.051	-71.468	C.3	77	C77	0.000	
1644	 O2'	12.245	-9.789	-71.833	O.3	77	C77	0.000	
1645	 C1'	10.182	-8.735	-71.239	C.3	77	C77	0.000	
1646	  N1	8.980	-8.796	-70.320	N.pl3	77	C77	0.000	
1647	  C2	9.192	-8.804	-68.944	C.2	77	C77	0.000	
1648	  O2	10.349	-8.784	-68.531	O.2	77	C77	0.000	
1649	  N3	8.136	-8.833	-68.097	N.2	77	C77	0.000	
1650	  C4	6.900	-8.859	-68.580	C.2	77	C77	0.000	
1651	  N4	5.893	-8.891	-67.711	N.pl3	77	C77	0.000	
1652	  C5	6.644	-8.856	-69.979	C.2	77	C77	0.000	
1653	  C6	7.698	-8.820	-70.801	C.2	77	C77	0.000	
1654	 OP1	5.991	-9.683	-75.736	O.co2	77	C77	0.000	
1655	 OP2	5.010	-9.283	-73.369	O.co2	77	C77	0.000	
@<TRIPOS>BOND
1 1 3 1
2 1 22 2
3 1 23 1
4 2 3 1
5 2 4 1
6 4 5 1
7 4 6 1
8 5 10 1
9 6 7 1
10 6 8 1
11 7 24 1
12 8 9 1
13 8 10 1
14 10 21 1
15 11 12 1
16 11 17 1
17 12 13 1
18 12 14 2
19 14 15 1
20 15 16 2
21 15 21 1
22 16 17 1
23 16 19 1
24 17 18 2
25 19 20 2
26 20 21 1
27 24 26 1
28 24 45 2
29 24 46 1
30 25 26 1
31 25 27 1
32 27 28 1
33 27 29 1
34 28 33 1
35 29 30 1
36 29 31 1
37 30 47 1
38 31 32 1
39 31 33 1
40 33 44 1
41 34 35 1
42 34 40 1
43 35 36 1
44 35 37 2
45 37 38 1
46 38 39 2
47 38 44 1
48 39 40 1
49 39 42 1
50 40 41 2
51 42 43 2
52 43 44 1
53 47 49 1
54 47 68 2
55 47 69 1
56 48 49 1
57 48 50 1
58 50 51 1
59 50 52 1
60 51 56 1
61 52 53 1
62 52 54 1
63 53 70 1
64 54 55 1
65 54 56 1
66 56 67 1
67 57 58 1
68 57 63 1
69 58 59 1
70 58 60 2
71 60 61 1
72 61 62 2
73 61 67 1
74 62 63 1
75 62 65 1
76 63 64 2
77 65 66 2
78 66 67 1
79 70 72 1
80 70 90 2
81 70 91 1
82 71 72 1
83 71 73 1
84 73 74 1
85 73 75 1
86 74 79 1
87 75 76 1
88 75 77 1
89 76 92 1
90 77 78 1
91 77 79 1
92 79 89 1
93 80 81 1
94 80 85 2
95 81 82 2
96 82 83 1
97 83 84 2
98 83 89 1
99 84 85 1
100 84 87 1
101 85 86 1
102 87 88 2
103 88 89 1
104 92 94 1
105 92 110 2
106 92 111 1
107 93 94 1
108 93 95 1
109 95 96 1
110 95 97 1
111 96 101 1
112 97 98 1
113 97 99 1
114 98 112 1
115 99 100 1
116 99 101 1
117 101 102 1
118 102 103 1
119 102 109 1
120 103 104 2
121 103 105 1
122 105 106 2
123 106 107 1
124 106 108 1
125 108 109 2
126 112 114 1
127 112 130 2
128 112 131 1
129 113 114 1
130 113 115 1
131 115 116 1
132 115 117 1
133 116 121 1
134 117 118 1
135 117 119 1
136 118 132 1
137 119 120 1
138 119 121 1
139 121 122 1
140 122 123 1
141 122 129 1
142 123 124 2
143 123 125 1
144 125 126 2
145 126 127 1
146 126 128 1
147 128 129 2
148 132 134 1
149 132 152 2
150 132 153 1
151 133 134 1
152 133 135 1
153 135 136 1
154 135 137 1
155 136 141 1
156 137 138 1
157 137 139 1
158 138 154 1
159 139 140 1
160 139 141 1
161 141 151 1
162 142 143 1
163 142 147 2
164 143 144 2
165 144 145 1
166 145 146 2
167 145 151 1
168 146 147 1
169 146 149 1
170 147 148 1
171 149 150 2
172 150 151 1
173 154 156 1
174 154 175 2
175 154 176 1
176 155 156 1
177 155 157 1
178 157 158 1
179 157 159 1
180 158 163 1
181 159 160 1
182 159 161 1
183 160 177 1
184 161 162 1
185 161 163 1
186 163 174 1
187 164 165 1
188 164 170 1
189 165 166 1
190 165 167 2
191 167 168 1
192 168 169 2
193 168 174 1
194 169 170 1
195 169 172 1
196 170 171 2
197 172 173 2
198 173 174 1
199 177 179 1
200 177 198 2
201 177 199 1
202 178 179 1
203 178 180 1
204 180 181 1
205 180 182 1
206 181 186 1
207 182 183 1
208 182 184 1
209 183 200 1
210 184 185 1
211 184 186 1
212 186 197 1
213 187 188 1
214 187 193 1
215 188 189 1
216 188 190 2
217 190 191 1
218 191 192 2
219 191 197 1
220 192 193 1
221 192 195 1
222 193 194 2
223 195 196 2
224 196 197 1
225 200 202 1
226 200 221 2
227 200 222 1
228 201 202 1
229 201 203 1
230 203 204 1
231 203 205 1
232 204 209 1
233 205 206 1
234 205 207 1
235 206 223 1
236 207 208 1
237 207 209 1
238 209 220 1
239 210 211 1
240 210 216 1
241 211 212 1
242 211 213 2
243 213 214 1
244 214 215 2
245 214 220 1
246 215 216 1
247 215 218 1
248 216 217 2
249 218 219 2
250 219 220 1
251 223 225 1
252 223 244 2
253 223 245 1
254 224 225 1
255 224 226 1
256 226 227 1
257 226 228 1
258 227 232 1
259 228 229 1
260 228 230 1
261 229 246 1
262 230 231 1
263 230 232 1
264 232 243 1
265 233 234 1
266 233 239 1
267 234 235 1
268 234 236 2
269 236 237 1
270 237 238 2
271 237 243 1
272 238 239 1
273 238 241 1
274 239 240 2
275 241 242 2
276 242 243 1
277 246 248 1
278 246 264 2
279 246 265 1
280 247 248 1
281 247 249 1
282 249 250 1
283 249 251 1
284 250 255 1
285 251 252 1
286 251 253 1
287 252 266 1
288 253 254 1
289 253 255 1
290 255 256 1
291 256 257 1
292 256 263 1
293 257 258 2
294 257 259 1
295 259 260 1
296 260 261 2
297 260 262 1
298 262 263 2
299 266 268 1
300 266 287 2
301 266 288 1
302 267 268 1
303 267 269 1
304 269 270 1
305 269 271 1
306 270 275 1
307 271 272 1
308 271 273 1
309 272 289 1
310 273 274 1
311 273 275 1
312 275 286 1
313 276 277 1
314 276 282 1
315 277 278 1
316 277 279 2
317 279 280 1
318 280 281 2
319 280 286 1
320 281 282 1
321 281 284 1
322 282 283 2
323 284 285 2
324 285 286 1
325 289 291 1
326 289 307 2
327 289 308 1
328 290 291 1
329 290 292 1
330 292 293 1
331 292 294 1
332 293 298 1
333 294 295 1
334 294 296 1
335 295 309 1
336 296 297 1
337 296 298 1
338 298 299 1
339 299 300 1
340 299 306 1
341 300 301 2
342 300 302 1
343 302 303 2
344 303 304 1
345 303 305 1
346 305 306 2
347 309 311 1
348 309 327 2
349 309 328 1
350 310 311 1
351 310 312 1
352 312 313 1
353 312 314 1
354 313 318 1
355 314 315 1
356 314 316 1
357 315 329 1
358 316 317 1
359 316 318 1
360 318 319 1
361 319 320 1
362 319 326 1
363 320 321 2
364 320 322 1
365 322 323 1
366 323 324 2
367 323 325 1
368 325 326 2
369 329 331 1
370 329 347 2
371 329 348 1
372 330 331 1
373 330 332 1
374 332 333 1
375 332 334 1
376 333 338 1
377 334 335 1
378 334 336 1
379 335 349 1
380 336 337 1
381 336 338 1
382 338 339 1
383 339 340 1
384 339 346 1
385 340 341 2
386 340 342 1
387 342 343 1
388 343 344 2
389 343 345 1
390 345 346 2
391 349 351 1
392 349 370 2
393 349 371 1
394 350 351 1
395 350 352 1
396 352 353 1
397 352 354 1
398 353 358 1
399 354 355 1
400 354 356 1
401 355 372 1
402 356 357 1
403 356 358 1
404 358 369 1
405 359 360 1
406 359 365 1
407 360 361 1
408 360 362 2
409 362 363 1
410 363 364 2
411 363 369 1
412 364 365 1
413 364 367 1
414 365 366 2
415 367 368 2
416 368 369 1
417 372 374 1
418 372 390 2
419 372 391 1
420 373 374 1
421 373 375 1
422 375 376 1
423 375 377 1
424 376 381 1
425 377 378 1
426 377 379 1
427 378 392 1
428 379 380 1
429 379 381 1
430 381 382 1
431 382 383 1
432 382 389 1
433 383 384 2
434 383 385 1
435 385 386 1
436 386 387 2
437 386 388 1
438 388 389 2
439 392 394 1
440 392 410 2
441 392 411 1
442 393 394 1
443 393 395 1
444 395 396 1
445 395 397 1
446 396 401 1
447 397 398 1
448 397 399 1
449 398 412 1
450 399 400 1
451 399 401 1
452 401 402 1
453 402 403 1
454 402 409 1
455 403 404 2
456 403 405 1
457 405 406 1
458 406 407 2
459 406 408 1
460 408 409 2
461 412 414 1
462 412 430 2
463 412 431 1
464 413 414 1
465 413 415 1
466 415 416 1
467 415 417 1
468 416 421 1
469 417 418 1
470 417 419 1
471 418 432 1
472 419 420 1
473 419 421 1
474 421 422 1
475 422 423 1
476 422 429 1
477 423 424 2
478 423 425 1
479 425 426 2
480 426 427 1
481 426 428 1
482 428 429 2
483 432 434 1
484 432 452 2
485 432 453 1
486 433 434 1
487 433 435 1
488 435 436 1
489 435 437 1
490 436 441 1
491 437 438 1
492 437 439 1
493 438 454 1
494 439 440 1
495 439 441 1
496 441 451 1
497 442 443 1
498 442 447 2
499 443 444 2
500 444 445 1
501 445 446 2
502 445 451 1
503 446 447 1
504 446 449 1
505 447 448 1
506 449 450 2
507 450 451 1
508 454 456 1
509 454 472 2
510 454 473 1
511 455 456 1
512 455 457 1
513 457 458 1
514 457 459 1
515 458 463 1
516 459 460 1
517 459 461 1
518 460 474 1
519 461 462 1
520 461 463 1
521 463 464 1
522 464 465 1
523 464 471 1
524 465 466 2
525 465 467 1
526 467 468 2
527 468 469 1
528 468 470 1
529 470 471 2
530 474 476 1
531 474 494 2
532 474 495 1
533 475 476 1
534 475 477 1
535 477 478 1
536 477 479 1
537 478 483 1
538 479 480 1
539 479 481 1
540 480 496 1
541 481 482 1
542 481 483 1
543 483 493 1
544 484 485 1
545 484 489 2
546 485 486 2
547 486 487 1
548 487 488 2
549 487 493 1
550 488 489 1
551 488 491 1
552 489 490 1
553 491 492 2
554 492 493 1
555 496 498 1
556 496 517 2
557 496 518 1
558 497 498 1
559 497 499 1
560 499 500 1
561 499 501 1
562 500 505 1
563 501 502 1
564 501 503 1
565 502 519 1
566 503 504 1
567 503 505 1
568 505 516 1
569 506 507 1
570 506 512 1
571 507 508 1
572 507 509 2
573 509 510 1
574 510 511 2
575 510 516 1
576 511 512 1
577 511 514 1
578 512 513 2
579 514 515 2
580 515 516 1
581 519 521 1
582 519 540 2
583 519 541 1
584 520 521 1
585 520 522 1
586 522 523 1
587 522 524 1
588 523 528 1
589 524 525 1
590 524 526 1
591 525 542 1
592 526 527 1
593 526 528 1
594 528 539 1
595 529 530 1
596 529 535 1
597 530 531 1
598 530 532 2
599 532 533 1
600 533 534 2
601 533 539 1
602 534 535 1
603 534 537 1
604 535 536 2
605 537 538 2
606 538 539 1
607 542 544 1
608 542 560 2
609 542 561 1
610 543 544 1
611 543 545 1
612 545 546 1
613 545 547 1
614 546 551 1
615 547 548 1
616 547 549 1
617 548 562 1
618 549 550 1
619 549 551 1
620 551 552 1
621 552 553 1
622 552 559 1
623 553 554 2
624 553 555 1
625 555 556 2
626 556 557 1
627 556 558 1
628 558 559 2
629 562 564 1
630 562 580 2
631 562 581 1
632 563 564 1
633 563 565 1
634 565 566 1
635 565 567 1
636 566 571 1
637 567 568 1
638 567 569 1
639 568 582 1
640 569 570 1
641 569 571 1
642 571 572 1
643 572 573 1
644 572 579 1
645 573 574 2
646 573 575 1
647 575 576 1
648 576 577 2
649 576 578 1
650 578 579 2
651 582 584 1
652 582 603 2
653 582 604 1
654 583 584 1
655 583 585 1
656 585 586 1
657 585 587 1
658 586 591 1
659 587 588 1
660 587 589 1
661 588 605 1
662 589 590 1
663 589 591 1
664 591 602 1
665 592 593 1
666 592 598 1
667 593 594 1
668 593 595 2
669 595 596 1
670 596 597 2
671 596 602 1
672 597 598 1
673 597 600 1
674 598 599 2
675 600 601 2
676 601 602 1
677 605 607 1
678 605 625 2
679 605 626 1
680 606 607 1
681 606 608 1
682 608 609 1
683 608 610 1
684 609 614 1
685 610 611 1
686 610 612 1
687 611 627 1
688 612 613 1
689 612 614 1
690 614 624 1
691 615 616 1
692 615 620 2
693 616 617 2
694 617 618 1
695 618 619 2
696 618 624 1
697 619 620 1
698 619 622 1
699 620 621 1
700 622 623 2
701 623 624 1
702 627 629 1
703 627 648 2
704 627 649 1
705 628 629 1
706 628 630 1
707 630 631 1
708 630 632 1
709 631 636 1
710 632 633 1
711 632 634 1
712 633 650 1
713 634 635 1
714 634 636 1
715 636 647 1
716 637 638 1
717 637 643 1
718 638 639 1
719 638 640 2
720 640 641 1
721 641 642 2
722 641 647 1
723 642 643 1
724 642 645 1
725 643 644 2
726 645 646 2
727 646 647 1
728 650 652 1
729 650 670 2
730 650 671 1
731 651 652 1
732 651 653 1
733 653 654 1
734 653 655 1
735 654 659 1
736 655 656 1
737 655 657 1
738 656 672 1
739 657 658 1
740 657 659 1
741 659 669 1
742 660 661 1
743 660 665 2
744 661 662 2
745 662 663 1
746 663 664 2
747 663 669 1
748 664 665 1
749 664 667 1
750 665 666 1
751 667 668 2
752 668 669 1
753 672 674 1
754 672 692 2
755 672 693 1
756 673 674 1
757 673 675 1
758 675 676 1
759 675 677 1
760 676 681 1
761 677 678 1
762 677 679 1
763 678 694 1
764 679 680 1
765 679 681 1
766 681 691 1
767 682 683 1
768 682 687 2
769 683 684 2
770 684 685 1
771 685 686 2
772 685 691 1
773 686 687 1
774 686 689 1
775 687 688 1
776 689 690 2
777 690 691 1
778 694 696 1
779 694 714 2
780 694 715 1
781 695 696 1
782 695 697 1
783 697 698 1
784 697 699 1
785 698 703 1
786 699 700 1
787 699 701 1
788 700 716 1
789 701 702 1
790 701 703 1
791 703 713 1
792 704 705 1
793 704 709 2
794 705 706 2
795 706 707 1
796 707 708 2
797 707 713 1
798 708 709 1
799 708 711 1
800 709 710 1
801 711 712 2
802 712 713 1
803 716 718 1
804 716 737 2
805 716 738 1
806 717 718 1
807 717 719 1
808 719 720 1
809 719 721 1
810 720 725 1
811 721 722 1
812 721 723 1
813 722 739 1
814 723 724 1
815 723 725 1
816 725 736 1
817 726 727 1
818 726 732 1
819 727 728 1
820 727 729 2
821 729 730 1
822 730 731 2
823 730 736 1
824 731 732 1
825 731 734 1
826 732 733 2
827 734 735 2
828 735 736 1
829 739 741 1
830 739 757 2
831 739 758 1
832 740 741 1
833 740 742 1
834 742 743 1
835 742 744 1
836 743 748 1
837 744 745 1
838 744 746 1
839 745 759 1
840 746 747 1
841 746 748 1
842 748 749 1
843 749 750 1
844 749 756 1
845 750 751 2
846 750 752 1
847 752 753 1
848 753 754 2
849 753 755 1
850 755 756 2
851 759 761 1
852 759 777 2
853 759 778 1
854 760 761 1
855 760 762 1
856 762 763 1
857 762 764 1
858 763 768 1
859 764 765 1
860 764 766 1
861 765 779 1
862 766 767 1
863 766 768 1
864 768 769 1
865 769 770 1
866 769 776 1
867 770 771 2
868 770 772 1
869 772 773 2
870 773 774 1
871 773 775 1
872 775 776 2
873 779 781 1
874 779 797 2
875 779 798 1
876 780 781 1
877 780 782 1
878 782 783 1
879 782 784 1
880 783 788 1
881 784 785 1
882 784 786 1
883 785 799 1
884 786 787 1
885 786 788 1
886 788 789 1
887 789 790 1
888 789 796 1
889 790 791 2
890 790 792 1
891 792 793 2
892 793 794 1
893 793 795 1
894 795 796 2
895 799 801 1
896 799 817 2
897 799 818 1
898 800 801 1
899 800 802 1
900 802 803 1
901 802 804 1
902 803 808 1
903 804 805 1
904 804 806 1
905 805 819 1
906 806 807 1
907 806 808 1
908 808 809 1
909 809 810 1
910 809 816 1
911 810 811 2
912 810 812 1
913 812 813 2
914 813 814 1
915 813 815 1
916 815 816 2
917 819 821 1
918 819 837 2
919 819 838 1
920 820 821 1
921 820 822 1
922 822 823 1
923 822 824 1
924 823 828 1
925 824 825 1
926 824 826 1
927 825 839 1
928 826 827 1
929 826 828 1
930 828 829 1
931 829 830 1
932 829 836 1
933 830 831 2
934 830 832 1
935 832 833 1
936 833 834 2
937 833 835 1
938 835 836 2
939 839 841 1
940 839 857 2
941 839 858 1
942 840 841 1
943 840 842 1
944 842 843 1
945 842 844 1
946 843 848 1
947 844 845 1
948 844 846 1
949 845 859 1
950 846 847 1
951 846 848 1
952 848 849 1
953 849 850 1
954 849 856 1
955 850 851 2
956 850 852 1
957 852 853 1
958 853 854 2
959 853 855 1
960 855 856 2
961 859 861 1
962 859 877 2
963 859 878 1
964 860 861 1
965 860 862 1
966 862 863 1
967 862 864 1
968 863 868 1
969 864 865 1
970 864 866 1
971 865 879 1
972 866 867 1
973 866 868 1
974 868 869 1
975 869 870 1
976 869 876 1
977 870 871 2
978 870 872 1
979 872 873 1
980 873 874 2
981 873 875 1
982 875 876 2
983 879 881 1
984 879 900 2
985 879 901 1
986 880 881 1
987 880 882 1
988 882 883 1
989 882 884 1
990 883 888 1
991 884 885 1
992 884 886 1
993 885 902 1
994 886 887 1
995 886 888 1
996 888 899 1
997 889 890 1
998 889 895 1
999 890 891 1
1000 890 892 2
1001 892 893 1
1002 893 894 2
1003 893 899 1
1004 894 895 1
1005 894 897 1
1006 895 896 2
1007 897 898 2
1008 898 899 1
1009 902 904 1
1010 902 922 2
1011 902 923 1
1012 903 904 1
1013 903 905 1
1014 905 906 1
1015 905 907 1
1016 906 911 1
1017 907 908 1
1018 907 909 1
1019 908 924 1
1020 909 910 1
1021 909 911 1
1022 911 921 1
1023 912 913 1
1024 912 917 2
1025 913 914 2
1026 914 915 1
1027 915 916 2
1028 915 921 1
1029 916 917 1
1030 916 919 1
1031 917 918 1
1032 919 920 2
1033 920 921 1
1034 924 926 1
1035 924 944 2
1036 924 945 1
1037 925 926 1
1038 925 927 1
1039 927 928 1
1040 927 929 1
1041 928 933 1
1042 929 930 1
1043 929 931 1
1044 930 946 1
1045 931 932 1
1046 931 933 1
1047 933 943 1
1048 934 935 1
1049 934 939 2
1050 935 936 2
1051 936 937 1
1052 937 938 2
1053 937 943 1
1054 938 939 1
1055 938 941 1
1056 939 940 1
1057 941 942 2
1058 942 943 1
1059 946 948 1
1060 946 964 2
1061 946 965 1
1062 947 948 1
1063 947 949 1
1064 949 950 1
1065 949 951 1
1066 950 955 1
1067 951 952 1
1068 951 953 1
1069 952 966 1
1070 953 954 1
1071 953 955 1
1072 955 956 1
1073 956 957 1
1074 956 963 1
1075 957 958 2
1076 957 959 1
1077 959 960 2
1078 960 961 1
1079 960 962 1
1080 962 963 2
1081 966 968 1
1082 966 984 2
1083 966 985 1
1084 967 968 1
1085 967 969 1
1086 969 970 1
1087 969 971 1
1088 970 975 1
1089 971 972 1
1090 971 973 1
1091 972 986 1
1092 973 974 1
1093 973 975 1
1094 975 976 1
1095 976 977 1
1096 976 983 1
1097 977 978 2
1098 977 979 1
1099 979 980 2
1100 980 981 1
1101 980 982 1
1102 982 983 2
1103 986 988 1
1104 986 1004 2
1105 986 1005 1
1106 987 988 1
1107 987 989 1
1108 989 990 1
1109 989 991 1
1110 990 995 1
1111 991 992 1
1112 991 993 1
1113 992 1006 1
1114 993 994 1
1115 993 995 1
1116 995 996 1
1117 996 997 1
1118 996 1003 1
1119 997 998 2
1120 997 999 1
1121 999 1000 1
1122 1000 1001 2
1123 1000 1002 1
1124 1002 1003 2
1125 1006 1008 1
1126 1006 1027 2
1127 1006 1028 1
1128 1007 1008 1
1129 1007 1009 1
1130 1009 1010 1
1131 1009 1011 1
1132 1010 1015 1
1133 1011 1012 1
1134 1011 1013 1
1135 1012 1029 1
1136 1013 1014 1
1137 1013 1015 1
1138 1015 1026 1
1139 1016 1017 1
1140 1016 1022 1
1141 1017 1018 1
1142 1017 1019 2
1143 1019 1020 1
1144 1020 1021 2
1145 1020 1026 1
1146 1021 1022 1
1147 1021 1024 1
1148 1022 1023 2
1149 1024 1025 2
1150 1025 1026 1
1151 1029 1031 1
1152 1029 1049 2
1153 1029 1050 1
1154 1030 1031 1
1155 1030 1032 1
1156 1032 1033 1
1157 1032 1034 1
1158 1033 1038 1
1159 1034 1035 1
1160 1034 1036 1
1161 1035 1051 1
1162 1036 1037 1
1163 1036 1038 1
1164 1038 1048 1
1165 1039 1040 1
1166 1039 1044 2
1167 1040 1041 2
1168 1041 1042 1
1169 1042 1043 2
1170 1042 1048 1
1171 1043 1044 1
1172 1043 1046 1
1173 1044 1045 1
1174 1046 1047 2
1175 1047 1048 1
1176 1051 1053 1
1177 1051 1071 2
1178 1051 1072 1
1179 1052 1053 1
1180 1052 1054 1
1181 1054 1055 1
1182 1054 1056 1
1183 1055 1060 1
1184 1056 1057 1
1185 1056 1058 1
1186 1057 1073 1
1187 1058 1059 1
1188 1058 1060 1
1189 1060 1070 1
1190 1061 1062 1
1191 1061 1066 2
1192 1062 1063 2
1193 1063 1064 1
1194 1064 1065 2
1195 1064 1070 1
1196 1065 1066 1
1197 1065 1068 1
1198 1066 1067 1
1199 1068 1069 2
1200 1069 1070 1
1201 1073 1075 1
1202 1073 1091 2
1203 1073 1092 1
1204 1074 1075 1
1205 1074 1076 1
1206 1076 1077 1
1207 1076 1078 1
1208 1077 1082 1
1209 1078 1079 1
1210 1078 1080 1
1211 1079 1093 1
1212 1080 1081 1
1213 1080 1082 1
1214 1082 1083 1
1215 1083 1084 1
1216 1083 1090 1
1217 1084 1085 2
1218 1084 1086 1
1219 1086 1087 2
1220 1087 1088 1
1221 1087 1089 1
1222 1089 1090 2
1223 1093 1095 1
1224 1093 1113 2
1225 1093 1114 1
1226 1094 1095 1
1227 1094 1096 1
1228 1096 1097 1
1229 1096 1098 1
1230 1097 1102 1
1231 1098 1099 1
1232 1098 1100 1
1233 1099 1115 1
1234 1100 1101 1
1235 1100 1102 1
1236 1102 1112 1
1237 1103 1104 1
1238 1103 1108 2
1239 1104 1105 2
1240 1105 1106 1
1241 1106 1107 2
1242 1106 1112 1
1243 1107 1108 1
1244 1107 1110 1
1245 1108 1109 1
1246 1110 1111 2
1247 1111 1112 1
1248 1115 1117 1
1249 1115 1136 2
1250 1115 1137 1
1251 1116 1117 1
1252 1116 1118 1
1253 1118 1119 1
1254 1118 1120 1
1255 1119 1124 1
1256 1120 1121 1
1257 1120 1122 1
1258 1121 1138 1
1259 1122 1123 1
1260 1122 1124 1
1261 1124 1135 1
1262 1125 1126 1
1263 1125 1131 1
1264 1126 1127 1
1265 1126 1128 2
1266 1128 1129 1
1267 1129 1130 2
1268 1129 1135 1
1269 1130 1131 1
1270 1130 1133 1
1271 1131 1132 2
1272 1133 1134 2
1273 1134 1135 1
1274 1138 1140 1
1275 1138 1159 2
1276 1138 1160 1
1277 1139 1140 1
1278 1139 1141 1
1279 1141 1142 1
1280 1141 1143 1
1281 1142 1147 1
1282 1143 1144 1
1283 1143 1145 1
1284 1144 1161 1
1285 1145 1146 1
1286 1145 1147 1
1287 1147 1158 1
1288 1148 1149 1
1289 1148 1154 1
1290 1149 1150 1
1291 1149 1151 2
1292 1151 1152 1
1293 1152 1153 2
1294 1152 1158 1
1295 1153 1154 1
1296 1153 1156 1
1297 1154 1155 2
1298 1156 1157 2
1299 1157 1158 1
1300 1161 1163 1
1301 1161 1182 2
1302 1161 1183 1
1303 1162 1163 1
1304 1162 1164 1
1305 1164 1165 1
1306 1164 1166 1
1307 1165 1170 1
1308 1166 1167 1
1309 1166 1168 1
1310 1167 1184 1
1311 1168 1169 1
1312 1168 1170 1
1313 1170 1181 1
1314 1171 1172 1
1315 1171 1177 1
1316 1172 1173 1
1317 1172 1174 2
1318 1174 1175 1
1319 1175 1176 2
1320 1175 1181 1
1321 1176 1177 1
1322 1176 1179 1
1323 1177 1178 2
1324 1179 1180 2
1325 1180 1181 1
1326 1184 1186 1
1327 1184 1202 2
1328 1184 1203 1
1329 1185 1186 1
1330 1185 1187 1
1331 1187 1188 1
1332 1187 1189 1
1333 1188 1193 1
1334 1189 1190 1
1335 1189 1191 1
1336 1190 1204 1
1337 1191 1192 1
1338 1191 1193 1
1339 1193 1194 1
1340 1194 1195 1
1341 1194 1201 1
1342 1195 1196 2
1343 1195 1197 1
1344 1197 1198 1
1345 1198 1199 2
1346 1198 1200 1
1347 1200 1201 2
1348 1204 1206 1
1349 1204 1224 2
1350 1204 1225 1
1351 1205 1206 1
1352 1205 1207 1
1353 1207 1208 1
1354 1207 1209 1
1355 1208 1213 1
1356 1209 1210 1
1357 1209 1211 1
1358 1210 1226 1
1359 1211 1212 1
1360 1211 1213 1
1361 1213 1223 1
1362 1214 1215 1
1363 1214 1219 2
1364 1215 1216 2
1365 1216 1217 1
1366 1217 1218 2
1367 1217 1223 1
1368 1218 1219 1
1369 1218 1221 1
1370 1219 1220 1
1371 1221 1222 2
1372 1222 1223 1
1373 1226 1228 1
1374 1226 1246 2
1375 1226 1247 1
1376 1227 1228 1
1377 1227 1229 1
1378 1229 1230 1
1379 1229 1231 1
1380 1230 1235 1
1381 1231 1232 1
1382 1231 1233 1
1383 1232 1248 1
1384 1233 1234 1
1385 1233 1235 1
1386 1235 1245 1
1387 1236 1237 1
1388 1236 1241 2
1389 1237 1238 2
1390 1238 1239 1
1391 1239 1240 2
1392 1239 1245 1
1393 1240 1241 1
1394 1240 1243 1
1395 1241 1242 1
1396 1243 1244 2
1397 1244 1245 1
1398 1248 1250 1
1399 1248 1266 2
1400 1248 1267 1
1401 1249 1250 1
1402 1249 1251 1
1403 1251 1252 1
1404 1251 1253 1
1405 1252 1257 1
1406 1253 1254 1
1407 1253 1255 1
1408 1254 1268 1
1409 1255 1256 1
1410 1255 1257 1
1411 1257 1258 1
1412 1258 1259 1
1413 1258 1265 1
1414 1259 1260 2
1415 1259 1261 1
1416 1261 1262 1
1417 1262 1263 2
1418 1262 1264 1
1419 1264 1265 2
1420 1268 1270 1
1421 1268 1289 2
1422 1268 1290 1
1423 1269 1270 1
1424 1269 1271 1
1425 1271 1272 1
1426 1271 1273 1
1427 1272 1277 1
1428 1273 1274 1
1429 1273 1275 1
1430 1274 1291 1
1431 1275 1276 1
1432 1275 1277 1
1433 1277 1288 1
1434 1278 1279 1
1435 1278 1284 1
1436 1279 1280 1
1437 1279 1281 2
1438 1281 1282 1
1439 1282 1283 2
1440 1282 1288 1
1441 1283 1284 1
1442 1283 1286 1
1443 1284 1285 2
1444 1286 1287 2
1445 1287 1288 1
1446 1291 1293 1
1447 1291 1309 2
1448 1291 1310 1
1449 1292 1293 1
1450 1292 1294 1
1451 1294 1295 1
1452 1294 1296 1
1453 1295 1300 1
1454 1296 1297 1
1455 1296 1298 1
1456 1297 1311 1
1457 1298 1299 1
1458 1298 1300 1
1459 1300 1301 1
1460 1301 1302 1
1461 1301 1308 1
1462 1302 1303 2
1463 1302 1304 1
1464 1304 1305 2
1465 1305 1306 1
1466 1305 1307 1
1467 1307 1308 2
1468 1311 1313 1
1469 1311 1329 2
1470 1311 1330 1
1471 1312 1313 1
1472 1312 1314 1
1473 1314 1315 1
1474 1314 1316 1
1475 1315 1320 1
1476 1316 1317 1
1477 1316 1318 1
1478 1317 1331 1
1479 1318 1319 1
1480 1318 1320 1
1481 1320 1321 1
1482 1321 1322 1
1483 1321 1328 1
1484 1322 1323 2
1485 1322 1324 1
1486 1324 1325 2
1487 1325 1326 1
1488 1325 1327 1
1489 1327 1328 2
1490 1331 1333 1
1491 1331 1349 2
1492 1331 1350 1
1493 1332 1333 1
1494 1332 1334 1
1495 1334 1335 1
1496 1334 1336 1
1497 1335 1340 1
1498 1336 1337 1
1499 1336 1338 1
1500 1337 1351 1
1501 1338 1339 1
1502 1338 1340 1
1503 1340 1341 1
1504 1341 1342 1
1505 1341 1348 1
1506 1342 1343 2
1507 1342 1344 1
1508 1344 1345 1
1509 1345 1346 2
1510 1345 1347 1
1511 1347 1348 2
1512 1351 1353 1
1513 1351 1372 2
1514 1351 1373 1
1515 1352 1353 1
1516 1352 1354 1
1517 1354 1355 1
1518 1354 1356 1
1519 1355 1360 1
1520 1356 1357 1
1521 1356 1358 1
1522 1357 1374 1
1523 1358 1359 1
1524 1358 1360 1
1525 1360 1371 1
1526 1361 1362 1
1527 1361 1367 1
1528 1362 1363 1
1529 1362 1364 2
1530 1364 1365 1
1531 1365 1366 2
1532 1365 1371 1
1533 1366 1367 1
1534 1366 1369 1
1535 1367 1368 2
1536 1369 1370 2
1537 1370 1371 1
1538 1374 1376 1
1539 1374 1392 2
1540 1374 1393 1
1541 1375 1376 1
1542 1375 1377 1
1543 1377 1378 1
1544 1377 1379 1
1545 1378 1383 1
1546 1379 1380 1
1547 1379 1381 1
1548 1380 1394 1
1549 1381 1382 1
1550 1381 1383 1
1551 1383 1384 1
1552 1384 1385 1
1553 1384 1391 1
1554 1385 1386 2
1555 1385 1387 1
1556 1387 1388 2
1557 1388 1389 1
1558 1388 1390 1
1559 1390 1391 2
1560 1394 1396 1
1561 1394 1415 2
1562 1394 1416 1
1563 1395 1396 1
1564 1395 1397 1
1565 1397 1398 1
1566 1397 1399 1
1567 1398 1403 1
1568 1399 1400 1
1569 1399 1401 1
1570 1400 1417 1
1571 1401 1402 1
1572 1401 1403 1
1573 1403 1414 1
1574 1404 1405 1
1575 1404 1410 1
1576 1405 1406 1
1577 1405 1407 2
1578 1407 1408 1
1579 1408 1409 2
1580 1408 1414 1
1581 1409 1410 1
1582 1409 1412 1
1583 1410 1411 2
1584 1412 1413 2
1585 1413 1414 1
1586 1417 1419 1
1587 1417 1435 2
1588 1417 1436 1
1589 1418 1419 1
1590 1418 1420 1
1591 1420 1421 1
1592 1420 1422 1
1593 1421 1426 1
1594 1422 1423 1
1595 1422 1424 1
1596 1423 1437 1
1597 1424 1425 1
1598 1424 1426 1
1599 1426 1427 1
1600 1427 1428 1
1601 1427 1434 1
1602 1428 1429 2
1603 1428 1430 1
1604 1430 1431 2
1605 1431 1432 1
1606 1431 1433 1
1607 1433 1434 2
1608 1437 1439 1
1609 1437 1457 2
1610 1437 1458 1
1611 1438 1439 1
1612 1438 1440 1
1613 1440 1441 1
1614 1440 1442 1
1615 1441 1446 1
1616 1442 1443 1
1617 1442 1444 1
1618 1443 1459 1
1619 1444 1445 1
1620 1444 1446 1
1621 1446 1456 1
1622 1447 1448 1
1623 1447 1452 2
1624 1448 1449 2
1625 1449 1450 1
1626 1450 1451 2
1627 1450 1456 1
1628 1451 1452 1
1629 1451 1454 1
1630 1452 1453 1
1631 1454 1455 2
1632 1455 1456 1
1633 1459 1461 1
1634 1459 1480 2
1635 1459 1481 1
1636 1460 1461 1
1637 1460 1462 1
1638 1462 1463 1
1639 1462 1464 1
1640 1463 1468 1
1641 1464 1465 1
1642 1464 1466 1
1643 1465 1482 1
1644 1466 1467 1
1645 1466 1468 1
1646 1468 1479 1
1647 1469 1470 1
1648 1469 1475 1
1649 1470 1471 1
1650 1470 1472 2
1651 1472 1473 1
1652 1473 1474 2
1653 1473 1479 1
1654 1474 1475 1
1655 1474 1477 1
1656 1475 1476 2
1657 1477 1478 2
1658 1478 1479 1
1659 1482 1484 1
1660 1482 1503 2
1661 1482 1504 1
1662 1483 1484 1
1663 1483 1485 1
1664 1485 1486 1
1665 1485 1487 1
1666 1486 1491 1
1667 1487 1488 1
1668 1487 1489 1
1669 1488 1505 1
1670 1489 1490 1
1671 1489 1491 1
1672 1491 1502 1
1673 1492 1493 1
1674 1492 1498 1
1675 1493 1494 1
1676 1493 1495 2
1677 1495 1496 1
1678 1496 1497 2
1679 1496 1502 1
1680 1497 1498 1
1681 1497 1500 1
1682 1498 1499 2
1683 1500 1501 2
1684 1501 1502 1
1685 1505 1507 1
1686 1505 1526 2
1687 1505 1527 1
1688 1506 1507 1
1689 1506 1508 1
1690 1508 1509 1
1691 1508 1510 1
1692 1509 1514 1
1693 1510 1511 1
1694 1510 1512 1
1695 1511 1528 1
1696 1512 1513 1
1697 1512 1514 1
1698 1514 1525 1
1699 1515 1516 1
1700 1515 1521 1
1701 1516 1517 1
1702 1516 1518 2
1703 1518 1519 1
1704 1519 1520 2
1705 1519 1525 1
1706 1520 1521 1
1707 1520 1523 1
1708 1521 1522 2
1709 1523 1524 2
1710 1524 1525 1
1711 1528 1530 1
1712 1528 1548 2
1713 1528 1549 1
1714 1529 1530 1
1715 1529 1531 1
1716 1531 1532 1
1717 1531 1533 1
1718 1532 1537 1
1719 1533 1534 1
1720 1533 1535 1
1721 1534 1550 1
1722 1535 1536 1
1723 1535 1537 1
1724 1537 1547 1
1725 1538 1539 1
1726 1538 1543 2
1727 1539 1540 2
1728 1540 1541 1
1729 1541 1542 2
1730 1541 1547 1
1731 1542 1543 1
1732 1542 1545 1
1733 1543 1544 1
1734 1545 1546 2
1735 1546 1547 1
1736 1550 1552 1
1737 1550 1571 2
1738 1550 1572 1
1739 1551 1552 1
1740 1551 1553 1
1741 1553 1554 1
1742 1553 1555 1
1743 1554 1559 1
1744 1555 1556 1
1745 1555 1557 1
1746 1556 1573 1
1747 1557 1558 1
1748 1557 1559 1
1749 1559 1570 1
1750 1560 1561 1
1751 1560 1566 1
1752 1561 1562 1
1753 1561 1563 2
1754 1563 1564 1
1755 1564 1565 2
1756 1564 1570 1
1757 1565 1566 1
1758 1565 1568 1
1759 1566 1567 2
1760 1568 1569 2
1761 1569 1570 1
1762 1573 1575 1
1763 1573 1591 2
1764 1573 1592 1
1765 1574 1575 1
1766 1574 1576 1
1767 1576 1577 1
1768 1576 1578 1
1769 1577 1582 1
1770 1578 1579 1
1771 1578 1580 1
1772 1579 1593 1
1773 1580 1581 1
1774 1580 1582 1
1775 1582 1583 1
1776 1583 1584 1
1777 1583 1590 1
1778 1584 1585 2
1779 1584 1586 1
1780 1586 1587 1
1781 1587 1588 2
1782 1587 1589 1
1783 1589 1590 2
1784 1593 1595 1
1785 1593 1614 2
1786 1593 1615 1
1787 1594 1595 1
1788 1594 1596 1
1789 1596 1597 1
1790 1596 1598 1
1791 1597 1602 1
1792 1598 1599 1
1793 1598 1600 1
1794 1599 1616 1
1795 1600 1601 1
1796 1600 1602 1
1797 1602 1613 1
1798 1603 1604 1
1799 1603 1609 1
1800 1604 1605 1
1801 1604 1606 2
1802 1606 1607 1
1803 1607 1608 2
1804 1607 1613 1
1805 1608 1609 1
1806 1608 1611 1
1807 1609 1610 2
1808 1611 1612 2
1809 1612 1613 1
1810 1616 1618 1
1811 1616 1634 2
1812 1616 1635 1
1813 1617 1618 1
1814 1617 1619 1
1815 1619 1620 1
1816 1619 1621 1
1817 1620 1625 1
1818 1621 1622 1
1819 1621 1623 1
1820 1622 1636 1
1821 1623 1624 1
1822 1623 1625 1
1823 1625 1626 1
1824 1626 1627 1
1825 1626 1633 1
1826 1627 1628 2
1827 1627 1629 1
1828 1629 1630 1
1829 1630 1631 2
1830 1630 1632 1
1831 1632 1633 2
1832 1636 1638 1
1833 1636 1654 2
1834 1636 1655 1
1835 1637 1638 1
1836 1637 1639 1
1837 1639 1640 1
1838 1639 1641 1
1839 1640 1645 1
1840 1641 1642 1
1841 1641 1643 1
1842 1643 1644 1
1843 1643 1645 1
1844 1645 1646 1
1845 1646 1647 1
1846 1646 1653 1
1847 1647 1648 2
1848 1647 1649 1
1849 1649 1650 2
1850 1650 1651 1
1851 1650 1652 1
1852 1652 1653 2
@<TRIPOS>SUBSTRUCTURE
1	G1	1	RESIDUE	1 A	G
2	G2	24	RESIDUE	1 A	G
3	G3	47	RESIDUE	1 A	G
4	A4	70	RESIDUE	1 A	A
5	C5	92	RESIDUE	1 A	C
6	C6	112	RESIDUE	1 A	C
7	A7	132	RESIDUE	1 A	A
8	G8	154	RESIDUE	1 A	G
9	G9	177	RESIDUE	1 A	G
10	G10	200	RESIDUE	1 A	G
11	G11	223	RESIDUE	1 A	G
12	U12	246	RESIDUE	1 A	U
13	G13	266	RESIDUE	1 A	G
14	C14	289	RESIDUE	1 A	C
15	U15	309	RESIDUE	1 A	U
16	U16	329	RESIDUE	1 A	U
17	G17	349	RESIDUE	1 A	G
18	U18	372	RESIDUE	1 A	U
19	U19	392	RESIDUE	1 A	U
20	C20	412	RESIDUE	1 A	C
21	A21	432	RESIDUE	1 A	A
22	C22	454	RESIDUE	1 A	C
23	A23	474	RESIDUE	1 A	A
24	G24	496	RESIDUE	1 A	G
25	G25	519	RESIDUE	1 A	G
26	C26	542	RESIDUE	1 A	C
27	U27	562	RESIDUE	1 A	U
28	G28	582	RESIDUE	1 A	G
29	A29	605	RESIDUE	1 A	A
30	G30	627	RESIDUE	1 A	G
31	A31	650	RESIDUE	1 A	A
32	A32	672	RESIDUE	1 A	A
33	A33	694	RESIDUE	1 A	A
34	G34	716	RESIDUE	1 A	G
35	U35	739	RESIDUE	1 A	U
36	C36	759	RESIDUE	1 A	C
37	C37	779	RESIDUE	1 A	C
38	C38	799	RESIDUE	1 A	C
39	U39	819	RESIDUE	1 A	U
40	U40	839	RESIDUE	1 A	U
41	U41	859	RESIDUE	1 A	U
42	G42	879	RESIDUE	1 A	G
43	A43	902	RESIDUE	1 A	A
44	A44	924	RESIDUE	1 A	A
45	C45	946	RESIDUE	1 A	C
46	C46	966	RESIDUE	1 A	C
47	U47	986	RESIDUE	1 A	U
48	G48	1006	RESIDUE	1 A	G
49	A49	1029	RESIDUE	1 A	A
50	A50	1051	RESIDUE	1 A	A
51	C51	1073	RESIDUE	1 A	C
52	A52	1093	RESIDUE	1 A	A
53	G53	1115	RESIDUE	1 A	G
54	G54	1138	RESIDUE	1 A	G
55	G55	1161	RESIDUE	1 A	G
56	U56	1184	RESIDUE	1 A	U
57	A57	1204	RESIDUE	1 A	A
58	A58	1226	RESIDUE	1 A	A
59	U59	1248	RESIDUE	1 A	U
60	G60	1268	RESIDUE	1 A	G
61	C61	1291	RESIDUE	1 A	C
62	C62	1311	RESIDUE	1 A	C
63	U63	1331	RESIDUE	1 A	U
64	G64	1351	RESIDUE	1 A	G
65	C65	1374	RESIDUE	1 A	C
66	G66	1394	RESIDUE	1 A	G
67	C67	1417	RESIDUE	1 A	C
68	A68	1437	RESIDUE	1 A	A
69	G69	1459	RESIDUE	1 A	G
70	G70	1482	RESIDUE	1 A	G
71	G71	1505	RESIDUE	1 A	G
72	A72	1528	RESIDUE	1 A	A
73	G73	1550	RESIDUE	1 A	G
74	U74	1573	RESIDUE	1 A	U
75	G75	1593	RESIDUE	1 A	G
76	U76	1616	RESIDUE	1 A	U
77	C77	1636	RESIDUE	1 A	C
